xflr5 v6.47

Plane name :        Custer1-dA03
Polar name :        T1-25.0 m/s-VLM2-15.0kg-x39.1mm
Freestream speed :  25.000 m/s


   alpha      Beta       CL          CDi        CDv        CD         CY         Cl         Cm         Cn        Cni       QInf        XCP
   -4.000     0.000  -0.132039   0.003180   0.015153   0.018333   0.002970  -0.021462   0.255269  -0.001110  -0.001064   25.0000     0.7105
   -3.800     0.000  -0.111378   0.002829   0.015020   0.017849   0.002977  -0.021467   0.241118  -0.001113  -0.001065   25.0000     0.7904
   -3.600     0.000  -0.090711   0.002515   0.014875   0.017390   0.002984  -0.021472   0.226951  -0.001120  -0.001066   25.0000     0.9068
   -3.400     0.000  -0.070037   0.002240   0.014725   0.016965   0.002990  -0.021476   0.212772  -0.001121  -0.001066   25.0000     1.0920
   -3.200     0.000  -0.049359   0.002003   0.014599   0.016601   0.002996  -0.021480   0.198580  -0.001123  -0.001067   25.0000     1.4324
   -3.000     0.000  -0.028676   0.001804   0.014468   0.016272   0.003001  -0.021484   0.184376  -0.001130  -0.001068   25.0000     2.2641
   -2.800     0.000  -0.007990   0.001644   0.014343   0.015987   0.003006  -0.021488   0.170160  -0.001132  -0.001069   25.0000     7.4027
   -2.600     0.000   0.012700   0.001522   0.014239   0.015761   0.003011  -0.021491   0.155934  -0.001136  -0.001069   25.0000    -4.2021
   -2.400     0.000   0.033392   0.001438   0.014122   0.015561   0.003015  -0.021495   0.141698  -0.001140  -0.001070   25.0000    -1.4251
   -2.200     0.000   0.054086   0.001394   0.014012   0.015405   0.003019  -0.021497   0.127453  -0.001140  -0.001070   25.0000    -0.7729
   -2.000     0.000   0.074781   0.001387   0.013911   0.015298   0.003023  -0.021500   0.113199  -0.001145  -0.001071   25.0000    -0.4817
   -1.800     0.000   0.095476   0.001419   0.013813   0.015232   0.003026  -0.021502   0.098936  -0.001148  -0.001071   25.0000    -0.3167
   -1.600     0.000   0.116172   0.001490   0.013725   0.015215   0.003029  -0.021505   0.084667  -0.001151  -0.001072   25.0000    -0.2105
   -1.400     0.000   0.136866   0.001599   0.013644   0.015244   0.003032  -0.021506   0.070391  -0.001152  -0.001072   25.0000    -0.1365
   -1.200     0.000   0.157559   0.001747   0.013575   0.015322   0.003034  -0.021508   0.056109  -0.001151  -0.001073   25.0000    -0.0818
   -1.000     0.000   0.178250   0.001934   0.013512   0.015446   0.003036  -0.021509   0.041822  -0.001148  -0.001073   25.0000    -0.0399
   -0.800     0.000   0.198939   0.002159   0.013461   0.015620   0.003038  -0.021510   0.027529  -0.001146  -0.001073   25.0000    -0.0067
   -0.600     0.000   0.219623   0.002422   0.013407   0.015830   0.003039  -0.021511   0.013233  -0.001143  -0.001073   25.0000     0.0203
   -0.400     0.000   0.240304   0.002724   0.013357   0.016081   0.003040  -0.021512  -0.001066  -0.001139  -0.001074   25.0000     0.0426
   -0.200     0.000   0.260980   0.003065   0.013315   0.016380   0.003040  -0.021512  -0.015369  -0.001135  -0.001074   25.0000     0.0614
    0.000     0.000   0.281650   0.003444   0.013272   0.016716   0.003041  -0.021512  -0.029673  -0.001132  -0.001074   25.0000     0.0774
    0.200     0.000   0.302315   0.003861   0.013231   0.017093   0.003040  -0.021512  -0.043979  -0.001128  -0.001074   25.0000     0.0913
    0.400     0.000   0.322972   0.004317   0.013189   0.017507   0.003040  -0.021511  -0.058286  -0.001124  -0.001074   25.0000     0.1033
    0.600     0.000   0.343623   0.004812   0.013139   0.017951   0.003039  -0.021511  -0.072593  -0.001121  -0.001074   25.0000     0.1139
    0.800     0.000   0.364265   0.005344   0.013082   0.018426   0.003038  -0.021510  -0.086899  -0.001117  -0.001074   25.0000     0.1234
    1.000     0.000   0.384899   0.005915   0.013006   0.018921   0.003036  -0.021508  -0.101204  -0.001113  -0.001074   25.0000     0.1318
    1.200     0.000   0.405523   0.006524   0.012912   0.019436   0.003034  -0.021507  -0.115507  -0.001106  -0.001074   25.0000     0.1393
    1.400     0.000   0.426137   0.007172   0.012807   0.019979   0.003032  -0.021505  -0.129808  -0.001097  -0.001074   25.0000     0.1461
    1.600     0.000   0.446741   0.007857   0.012700   0.020557   0.003029  -0.021503  -0.144105  -0.001086  -0.001073   25.0000     0.1523
    1.800     0.000   0.467333   0.008580   0.012588   0.021169   0.003026  -0.021501  -0.158398  -0.001071  -0.001073   25.0000     0.1580
    2.000     0.000   0.487913   0.009342   0.012510   0.021852   0.003023  -0.021498  -0.172687  -0.001059  -0.001073   25.0000     0.1632
    2.200     0.000   0.508481   0.010141   0.012460   0.022601   0.003019  -0.021495  -0.186971  -0.001049  -0.001073   25.0000     0.1679
    2.400     0.000   0.529036   0.010978   0.012432   0.023411   0.003015  -0.021492  -0.201249  -0.001040  -0.001072   25.0000     0.1723
    2.600     0.000   0.549577   0.011853   0.012435   0.024288   0.003010  -0.021489  -0.215521  -0.001033  -0.001072   25.0000     0.1764
    2.800     0.000   0.570103   0.012766   0.012465   0.025231   0.003005  -0.021485  -0.229786  -0.001026  -0.001071   25.0000     0.1802
    3.000     0.000   0.590614   0.013716   0.012508   0.026223   0.003000  -0.021481  -0.244043  -0.001021  -0.001071   25.0000     0.1837
    3.200     0.000   0.611109   0.014703   0.012552   0.027255   0.002995  -0.021477  -0.258292  -0.001018  -0.001070   25.0000     0.1870
    3.400     0.000   0.631588   0.015728   0.012599   0.028327   0.002989  -0.021472  -0.272532  -0.001015  -0.001070   25.0000     0.1900
    3.600     0.000   0.652049   0.016790   0.012645   0.029435   0.002983  -0.021468  -0.286762  -0.001014  -0.001069   25.0000     0.1929
    3.800     0.000   0.672493   0.017889   0.012694   0.030583   0.002976  -0.021463  -0.300982  -0.001013  -0.001069   25.0000     0.1956
    4.000     0.000   0.692919   0.019025   0.012746   0.031771   0.002969  -0.021457  -0.315191  -0.001013  -0.001068   25.0000     0.1982
    4.200     0.000   0.713325   0.020198   0.012804   0.033002   0.002962  -0.021452  -0.329388  -0.001014  -0.001067   25.0000     0.2006
    4.400     0.000   0.733712   0.021408   0.012876   0.034284   0.002954  -0.021446  -0.343574  -0.001014  -0.001067   25.0000     0.2029
    4.600     0.000   0.754078   0.022654   0.012949   0.035604   0.002946  -0.021440  -0.357746  -0.001014  -0.001066   25.0000     0.2050
    4.800     0.000   0.774424   0.023937   0.013025   0.036962   0.002938  -0.021434  -0.371905  -0.001013  -0.001065   25.0000     0.2071
    5.000     0.000   0.794748   0.025256   0.013105   0.038361   0.002929  -0.021427  -0.386050  -0.001010  -0.001064   25.0000     0.2090
    5.200     0.000   0.815050   0.026611   0.013186   0.039798   0.002920  -0.021420  -0.400179  -0.001007  -0.001063   25.0000     0.2109
    5.400     0.000   0.835329   0.028003   0.013275   0.041277   0.002911  -0.021413  -0.414293  -0.001004  -0.001062   25.0000     0.2126
    5.600     0.000   0.855584   0.029430   0.013374   0.042804   0.002901  -0.021406  -0.428391  -0.001001  -0.001061   25.0000     0.2143
    5.800     0.000   0.875816   0.030893   0.013470   0.044363   0.002891  -0.021398  -0.442473  -0.000998  -0.001060   25.0000     0.2159
    6.000     0.000   0.896023   0.032392   0.013563   0.045955   0.002881  -0.021390  -0.456537  -0.000996  -0.001059   25.0000     0.2175
    6.200     0.000   0.916204   0.033926   0.013660   0.047586   0.002870  -0.021382  -0.470582  -0.000992  -0.001058   25.0000     0.2189
    6.400     0.000   0.936360   0.035495   0.013757   0.049251   0.002859  -0.021374  -0.484609  -0.000987  -0.001057   25.0000     0.2204
    6.600     0.000   0.956489   0.037099   0.013858   0.050957   0.002847  -0.021365  -0.498616  -0.000982  -0.001056   25.0000     0.2217
    6.800     0.000   0.976590   0.038738   0.013970   0.052708   0.002835  -0.021356  -0.512603  -0.000978  -0.001054   25.0000     0.2230
    7.000     0.000   0.996664   0.040412   0.014082   0.054494   0.002823  -0.021347  -0.526569  -0.000973  -0.001053   25.0000     0.2243
    7.200     0.000   1.016710   0.042120   0.014191   0.056311   0.002811  -0.021337  -0.540513  -0.000970  -0.001052   25.0000     0.2255
    7.400     0.000   1.036727   0.043863   0.014298   0.058161   0.002798  -0.021327  -0.554436  -0.000965  -0.001051   25.0000     0.2267
    7.600     0.000   1.056714   0.045640   0.014414   0.060054   0.002785  -0.021317  -0.568335  -0.000960  -0.001049   25.0000     0.2278
    7.800     0.000   1.076670   0.047450   0.014539   0.061990   0.002771  -0.021307  -0.582211  -0.000957  -0.001048   25.0000     0.2289
    8.000     0.000   1.096596   0.049295   0.014669   0.063964   0.002757  -0.021296  -0.596063  -0.000952  -0.001046   25.0000     0.2299
    8.200     0.000   1.116491   0.051172   0.014794   0.065966   0.002743  -0.021285  -0.609890  -0.000947  -0.001045   25.0000     0.2310
    8.400     0.000   1.136354   0.053083   0.014916   0.067999   0.002729  -0.021274  -0.623691  -0.000943  -0.001043   25.0000     0.2320
    8.600     0.000   1.156183   0.055028   0.015044   0.070072   0.002714  -0.021263  -0.637465  -0.000936  -0.001042   25.0000     0.2329
    8.800     0.000   1.175980   0.057005   0.015184   0.072189   0.002699  -0.021251  -0.651213  -0.000930  -0.001040   25.0000     0.2338
    9.000     0.000   1.195743   0.059014   0.015339   0.074353   0.002683  -0.021239  -0.664934  -0.000927  -0.001038   25.0000     0.2347
    9.200     0.000   1.215471   0.061056   0.015477   0.076533   0.002667  -0.021227  -0.678625  -0.000921  -0.001037   25.0000     0.2356
    9.400     0.000   1.235165   0.063130   0.015623   0.078753   0.002651  -0.021214  -0.692288  -0.000914  -0.001035   25.0000     0.2365
    9.600     0.000   1.254823   0.065236   0.015792   0.081028   0.002634  -0.021202  -0.705923  -0.000903  -0.001033   25.0000     0.2373
    9.800     0.000   1.274445   0.067374   0.015976   0.083350   0.002617  -0.021189  -0.719527  -0.000897  -0.001032   25.0000     0.2381


