xflr5 v6.47

Plane name :        Custer1
Polar name :        T1-25.0 m/s-VLM2-15.0kg-x39.1mm
Freestream speed :  25.000 m/s


   alpha      Beta       CL          CDi        CDv        CD         CY         Cl         Cm         Cn        Cni       QInf        XCP
   -4.000     0.000  -0.130498   0.002258   0.014915   0.017174   0.000000   0.000000   0.253632  -0.000000  -0.000000   25.0000     0.7149
   -3.800     0.000  -0.109864   0.001904   0.014813   0.016717   0.000000   0.000000   0.239430  -0.000000  -0.000000   25.0000     0.7964
   -3.600     0.000  -0.089225   0.001588   0.014677   0.016266   0.000000   0.000000   0.225213  -0.000000  -0.000000   25.0000     0.9156
   -3.400     0.000  -0.068579   0.001312   0.014535   0.015846   0.000000   0.000000   0.210983  -0.000000  -0.000000   25.0000     1.1067
   -3.200     0.000  -0.047929   0.001074   0.014448   0.015523   0.000000   0.000000   0.196740  -0.000000  -0.000000   25.0000     1.4625
   -3.000     0.000  -0.027275   0.000875   0.014346   0.015221   0.000000   0.000000   0.182486  -0.000000  -0.000000   25.0000     2.3573
   -2.800     0.000  -0.006617   0.000716   0.014228   0.014943   0.000000   0.000000   0.168220  -0.000000  -0.000000   25.0000     8.8400
   -2.600     0.000   0.014044   0.000595   0.014141   0.014736   0.000000   0.000000   0.153943  -0.000000  -0.000000   25.0000    -3.7515
   -2.400     0.000   0.034708   0.000513   0.014030   0.014543   0.000000   0.000000   0.139657  -0.000000  -0.000000   25.0000    -1.3508
   -2.200     0.000   0.055373   0.000471   0.013959   0.014430   0.000000   0.000000   0.125361  -0.000000  -0.000000   25.0000    -0.7419
   -2.000     0.000   0.076039   0.000467   0.013875   0.014342   0.000000   0.000000   0.111057  -0.000000  -0.000000   25.0000    -0.4639
   -1.800     0.000   0.096705   0.000503   0.013790   0.014293   0.000000   0.000000   0.096744  -0.000000  -0.000000   25.0000    -0.3047
   -1.600     0.000   0.117371   0.000578   0.013720   0.014298   0.000000   0.000000   0.082425  -0.000000  -0.000000   25.0000    -0.2016
   -1.400     0.000   0.138036   0.000691   0.013657   0.014348   0.000000   0.000000   0.068098  -0.000000  -0.000000   25.0000    -0.1294
   -1.200     0.000   0.158700   0.000845   0.013583   0.014427   0.000000   0.000000   0.053766  -0.000000  -0.000000   25.0000    -0.0759
   -1.000     0.000   0.179361   0.001037   0.013523   0.014560   0.000000   0.000000   0.039429  -0.000000  -0.000000   25.0000    -0.0348
   -0.800     0.000   0.200019   0.001268   0.013472   0.014740   0.000000   0.000000   0.025086  -0.000000  -0.000000   25.0000    -0.0022
   -0.600     0.000   0.220673   0.001538   0.013421   0.014959   0.000000   0.000000   0.010740  -0.000000  -0.000000   25.0000     0.0243
   -0.400     0.000   0.241323   0.001848   0.013366   0.015214   0.000000   0.000000  -0.003609  -0.000000  -0.000000   25.0000     0.0463
   -0.200     0.000   0.261968   0.002196   0.013323   0.015519   0.000000   0.000000  -0.017961  -0.000000  -0.000000   25.0000     0.0648
    0.000     0.000   0.282608   0.002584   0.013286   0.015870   0.000000   0.000000  -0.032316  -0.000000  -0.000000   25.0000     0.0806
    0.200     0.000   0.303241   0.003011   0.013237   0.016247   0.000000   0.000000  -0.046671  -0.000000  -0.000000   25.0000     0.0943
    0.400     0.000   0.323867   0.003476   0.013190   0.016666   0.000000   0.000000  -0.061027  -0.000000  -0.000000   25.0000     0.1062
    0.600     0.000   0.344486   0.003981   0.013152   0.017132   0.000000   0.000000  -0.075384  -0.000000  -0.000000   25.0000     0.1167
    0.800     0.000   0.365096   0.004524   0.013097   0.017621   0.000000  -0.000000  -0.089739  -0.000000  -0.000000   25.0000     0.1260
    1.000     0.000   0.385698   0.005106   0.013012   0.018118   0.000000  -0.000000  -0.104094  -0.000000  -0.000000   25.0000     0.1343
    1.200     0.000   0.406290   0.005727   0.012910   0.018637   0.000000  -0.000000  -0.118446  -0.000000  -0.000000   25.0000     0.1418
    1.400     0.000   0.426872   0.006387   0.012812   0.019199   0.000000  -0.000000  -0.132796  -0.000000  -0.000000   25.0000     0.1486
    1.600     0.000   0.447442   0.007086   0.012710   0.019796   0.000000  -0.000000  -0.147142  -0.000000  -0.000000   25.0000     0.1547
    1.800     0.000   0.468002   0.007822   0.012610   0.020432   0.000000  -0.000000  -0.161484  -0.000000  -0.000000   25.0000     0.1603
    2.000     0.000   0.488549   0.008598   0.012528   0.021126   0.000000  -0.000000  -0.175822  -0.000000  -0.000000   25.0000     0.1654
    2.200     0.000   0.509083   0.009412   0.012461   0.021873   0.000000  -0.000000  -0.190154  -0.000000  -0.000000   25.0000     0.1702
    2.400     0.000   0.529603   0.010264   0.012401   0.022665   0.000000  -0.000000  -0.204481  -0.000000  -0.000000   25.0000     0.1745
    2.600     0.000   0.550110   0.011155   0.012373   0.023528   0.000000  -0.000000  -0.218801  -0.000000  -0.000000   25.0000     0.1785
    2.800     0.000   0.570602   0.012083   0.012378   0.024461   0.000000  -0.000000  -0.233115  -0.000000  -0.000000   25.0000     0.1823
    3.000     0.000   0.591078   0.013050   0.012403   0.025453   0.000000  -0.000000  -0.247420  -0.000000  -0.000000   25.0000     0.1858
    3.200     0.000   0.611538   0.014055   0.012439   0.026493   0.000000  -0.000000  -0.261717  -0.000000  -0.000000   25.0000     0.1890
    3.400     0.000   0.631981   0.015097   0.012475   0.027572   0.000000  -0.000000  -0.276005  -0.000000  -0.000000   25.0000     0.1921
    3.600     0.000   0.652407   0.016177   0.012514   0.028691   0.000000  -0.000000  -0.290284  -0.000000  -0.000000   25.0000     0.1949
    3.800     0.000   0.672815   0.017295   0.012552   0.029847   0.000000  -0.000000  -0.304551  -0.000000  -0.000000   25.0000     0.1976
    4.000     0.000   0.693204   0.018450   0.012596   0.031046   0.000000  -0.000000  -0.318808  -0.000000  -0.000000   25.0000     0.2002
    4.200     0.000   0.713574   0.019643   0.012649   0.032292   0.000000  -0.000000  -0.333053  -0.000000  -0.000000   25.0000     0.2026
    4.400     0.000   0.733924   0.020873   0.012722   0.033595   0.000000  -0.000000  -0.347286   0.000000  -0.000000   25.0000     0.2048
    4.600     0.000   0.754253   0.022140   0.012806   0.034947   0.000000  -0.000000  -0.361506   0.000000   0.000000   25.0000     0.2070
    4.800     0.000   0.774561   0.023444   0.012883   0.036327  -0.000000  -0.000000  -0.375712   0.000000   0.000000   25.0000     0.2090
    5.000     0.000   0.794847   0.024785   0.012955   0.037740  -0.000000  -0.000000  -0.389904   0.000000   0.000000   25.0000     0.2109
    5.200     0.000   0.815110   0.026163   0.013032   0.039195  -0.000000  -0.000000  -0.404081   0.000000   0.000000   25.0000     0.2128
    5.400     0.000   0.835351   0.027577   0.013121   0.040698  -0.000000  -0.000000  -0.418242   0.000000   0.000000   25.0000     0.2145
    5.600     0.000   0.855567   0.029027   0.013226   0.042253  -0.000000  -0.000000  -0.432388   0.000000   0.000000   25.0000     0.2162
    5.800     0.000   0.875759   0.030514   0.013334   0.043848  -0.000000  -0.000000  -0.446516   0.000000   0.000000   25.0000     0.2178
    6.000     0.000   0.895926   0.032036   0.013433   0.045469  -0.000000  -0.000000  -0.460626   0.000000   0.000000   25.0000     0.2194
    6.200     0.000   0.916068   0.033595   0.013525   0.047120  -0.000000  -0.000000  -0.474718   0.000000   0.000000   25.0000     0.2208
    6.400     0.000   0.936183   0.035189   0.013620   0.048809  -0.000000  -0.000000  -0.488791   0.000000   0.000000   25.0000     0.2222
    6.600     0.000   0.956271   0.036819   0.013721   0.050540  -0.000000  -0.000000  -0.502844   0.000000   0.000000   25.0000     0.2236
    6.800     0.000   0.976331   0.038484   0.013834   0.052318  -0.000000  -0.000000  -0.516877   0.000000   0.000000   25.0000     0.2249
    7.000     0.000   0.996364   0.040184   0.013965   0.054149  -0.000000  -0.000000  -0.530890   0.000000   0.000000   25.0000     0.2261
    7.200     0.000   1.016367   0.041919   0.014083   0.056002  -0.000000  -0.000000  -0.544880   0.000000   0.000000   25.0000     0.2274
    7.400     0.000   1.036342   0.043689   0.014191   0.057880  -0.000000  -0.000000  -0.558848   0.000000   0.000000   25.0000     0.2285
    7.600     0.000   1.056286   0.045493   0.014300   0.059793  -0.000000  -0.000000  -0.572793   0.000000   0.000000   25.0000     0.2296
    7.800     0.000   1.076199   0.047332   0.014414   0.061746  -0.000000  -0.000000  -0.586714   0.000000   0.000000   25.0000     0.2307
    8.000     0.000   1.096082   0.049205   0.014543   0.063748  -0.000000  -0.000000  -0.600612   0.000000   0.000000   25.0000     0.2318
    8.200     0.000   1.115932   0.051112   0.014689   0.065801  -0.000000  -0.000000  -0.614484   0.000000   0.000000   25.0000     0.2328
    8.400     0.000   1.135750   0.053052   0.014814   0.067866  -0.000000  -0.000000  -0.628330   0.000000   0.000000   25.0000     0.2338
    8.600     0.000   1.155536   0.055026   0.014931   0.069958  -0.000000  -0.000000  -0.642149   0.000000   0.000000   25.0000     0.2347
    8.800     0.000   1.175287   0.057033   0.015062   0.072095  -0.000000  -0.000000  -0.655941   0.000000   0.000000   25.0000     0.2357
    9.000     0.000   1.195004   0.059073   0.015207   0.074281  -0.000000  -0.000000  -0.669706   0.000000   0.000000   25.0000     0.2366
    9.200     0.000   1.214687   0.061146   0.015359   0.076506  -0.000000  -0.000000  -0.683442   0.000000   0.000000   25.0000     0.2375
    9.400     0.000   1.234334   0.063252   0.015490   0.078742  -0.000000  -0.000000  -0.697148   0.000000   0.000000   25.0000     0.2383
    9.600     0.000   1.253945   0.065390   0.015636   0.081026  -0.000000  -0.000000  -0.710825   0.000000   0.000000   25.0000     0.2391
    9.800     0.000   1.273519   0.067559   0.015816   0.083375  -0.000000  -0.000000  -0.724473   0.000000   0.000000   25.0000     0.2399
   10.000     0.000   1.293056   0.069761   0.015985   0.085746  -0.000000  -0.000000  -0.738089   0.000000   0.000000   25.0000     0.2407
   10.200     0.000   1.312556   0.071994   0.016157   0.088151  -0.000000  -0.000000  -0.751674   0.000000   0.000000   25.0000     0.2415
   10.400     0.000   1.332017   0.074259   0.016373   0.090632  -0.000000  -0.000000  -0.765228   0.000000   0.000000   25.0000     0.2422
   10.600     0.000   1.351439   0.076554   0.016577   0.093131  -0.000000  -0.000000  -0.778748   0.000000   0.000000   25.0000     0.2430
   10.800     0.000   1.370822   0.078880   0.016830   0.095710  -0.000000  -0.000000  -0.792236   0.000000   0.000000   25.0000     0.2437
   11.000     0.000   1.390165   0.081237   0.017088   0.098325  -0.000000  -0.000000  -0.805689   0.000000   0.000000   25.0000     0.2444
   11.200     0.000   1.409467   0.083624   0.017380   0.101004  -0.000000  -0.000000  -0.819107   0.000000   0.000000   25.0000     0.2451
   11.400     0.000   1.428728   0.086041   0.017712   0.103752  -0.000000  -0.000000  -0.832492   0.000000   0.000000   25.0000     0.2457
   11.600     0.000   1.447948   0.088487   0.018108   0.106595  -0.000000  -0.000000  -0.845842   0.000000   0.000000   25.0000     0.2464
   11.800     0.000   1.467125   0.090963   0.018558   0.109521  -0.000000  -0.000000  -0.859156   0.000000   0.000000   25.0000     0.2470
   12.000     0.000   1.486259   0.093468   0.019088   0.112555  -0.000000  -0.000000  -0.872437   0.000000   0.000000   25.0000     0.2477
   12.200     0.000   1.505350   0.096001   0.019765   0.115766  -0.000000  -0.000000  -0.885683   0.000000   0.000000   25.0000     0.2483
   12.400     0.000   1.524397   0.098564   0.020685   0.119249  -0.000000  -0.000000  -0.898899   0.000000   0.000000   25.0000     0.2489
   12.600     0.000   1.543400   0.101154   0.022001   0.123155  -0.000000  -0.000000  -0.912087   0.000000   0.000000   25.0000     0.2495


