xflr5 v6.47

Plane name :        Custer1-dE003
Polar name :        T1-20.0 m/s-VLM2-16.0kg-x39.1mm
Freestream speed :  20.000 m/s


   alpha      Beta       CL          CDi        CDv        CD         CY         Cl         Cm         Cn        Cni       QInf        XCP
   -4.000     0.000  -0.020228   0.000117   0.002301   0.002419   0.000000   0.000000   0.002308  -0.000000  -0.000000   20.0000     0.0790
   -3.800     0.000  -0.016184   0.000075   0.002292   0.002367   0.000000   0.000000   0.001844  -0.000000   0.000000   20.0000     0.0790
   -3.600     0.000  -0.012139   0.000042   0.002285   0.002328   0.000000   0.000000   0.001379   0.000000  -0.000000   20.0000     0.0790
   -3.400     0.000  -0.008094   0.000019   0.002280   0.002299   0.000000   0.000000   0.000915   0.000000   0.000000   20.0000     0.0790
   -3.200     0.000  -0.004047   0.000005   0.002278   0.002282   0.000000   0.000000   0.000451   0.000000   0.000000   20.0000     0.0790
   -3.000     0.000  -0.000000   0.000000   0.002276   0.002276  -0.000000   0.000000  -0.000013  -0.000000  -0.000000   20.0000     0.3789
   -2.800     0.000   0.004048   0.000005   0.002278   0.002282  -0.000000   0.000000  -0.000477   0.000000   0.000000   20.0000     0.0790
   -2.600     0.000   0.008096   0.000019   0.002280   0.002299  -0.000000   0.000000  -0.000941  -0.000000   0.000000   20.0000     0.0790
   -2.400     0.000   0.012144   0.000042   0.002285   0.002328  -0.000000   0.000000  -0.001404   0.000000  -0.000000   20.0000     0.0790
   -2.200     0.000   0.016192   0.000075   0.002292   0.002367  -0.000000   0.000000  -0.001868  -0.000000   0.000000   20.0000     0.0789
   -2.000     0.000   0.020240   0.000118   0.002301   0.002419  -0.000000   0.000000  -0.002331   0.000000   0.000000   20.0000     0.0789
   -1.800     0.000   0.024288   0.000169   0.002312   0.002481  -0.000000   0.000000  -0.002794   0.000000   0.000000   20.0000     0.0789
   -1.600     0.000   0.028335   0.000231   0.002324   0.002554  -0.000000  -0.000000  -0.003256  -0.000000   0.000000   20.0000     0.0789
   -1.400     0.000   0.032382   0.000301   0.002339   0.002640  -0.000000  -0.000000  -0.003718   0.000000  -0.000000   20.0000     0.0789
   -1.200     0.000   0.036429   0.000381   0.002355   0.002736  -0.000000  -0.000000  -0.004180   0.000000   0.000000   20.0000     0.0789
   -1.000     0.000   0.040474   0.000471   0.002373   0.002844  -0.000000  -0.000000  -0.004642   0.000000   0.000000   20.0000     0.0789
   -0.800     0.000   0.044519   0.000570   0.002393   0.002962  -0.000000  -0.000000  -0.005103   0.000000   0.000000   20.0000     0.0789
   -0.600     0.000   0.048562   0.000678   0.002413   0.003091  -0.000000  -0.000000  -0.005564   0.000000  -0.000000   20.0000     0.0790
   -0.400     0.000   0.052604   0.000795   0.002435   0.003231  -0.000000  -0.000000  -0.006024   0.000000  -0.000000   20.0000     0.0790
   -0.200     0.000   0.056644   0.000922   0.002459   0.003381  -0.000000  -0.000000  -0.006484  -0.000000  -0.000000   20.0000     0.0790
    0.000     0.000   0.060683   0.001059   0.002484   0.003542  -0.000000  -0.000000  -0.006944   0.000000   0.000000   20.0000     0.0790
    0.200     0.000   0.064721   0.001205   0.002510   0.003714  -0.000000  -0.000000  -0.007403   0.000000  -0.000000   20.0000     0.0790
    0.400     0.000   0.068756   0.001360   0.002536   0.003896  -0.000000  -0.000000  -0.007862   0.000000  -0.000000   20.0000     0.0790
    0.600     0.000   0.072789   0.001524   0.002564   0.004088  -0.000000  -0.000000  -0.008320   0.000000   0.000000   20.0000     0.0790
    0.800     0.000   0.076821   0.001698   0.002590   0.004288  -0.000000  -0.000000  -0.008778   0.000000  -0.000000   20.0000     0.0790
    1.000     0.000   0.080850   0.001881   0.002618   0.004499  -0.000000  -0.000000  -0.009235   0.000000   0.000000   20.0000     0.0790
    1.200     0.000   0.084876   0.002073   0.002646   0.004719  -0.000000  -0.000000  -0.009691   0.000000  -0.000000   20.0000     0.0790
    1.400     0.000   0.088900   0.002275   0.002675   0.004950  -0.000000  -0.000000  -0.010147   0.000000   0.000000   20.0000     0.0790
    1.600     0.000   0.092921   0.002485   0.002703   0.005188  -0.000000  -0.000000  -0.010602   0.000000   0.000000   20.0000     0.0790
    1.800     0.000   0.096939   0.002705   0.002731   0.005437  -0.000000  -0.000000  -0.011057   0.000000  -0.000000   20.0000     0.0790
    2.000     0.000   0.100954   0.002935   0.002760   0.005694  -0.000000  -0.000000  -0.011511  -0.000000  -0.000000   20.0000     0.0790
    2.200     0.000   0.104966   0.003173   0.002787   0.005960  -0.000000  -0.000000  -0.011964   0.000000  -0.000000   20.0000     0.0791
    2.400     0.000   0.108975   0.003421   0.002816   0.006237  -0.000000  -0.000000  -0.012416   0.000000  -0.000000   20.0000     0.0791
    2.600     0.000   0.112980   0.003677   0.002844   0.006521  -0.000000  -0.000000  -0.012868   0.000000   0.000000   20.0000     0.0791
    2.800     0.000   0.116982   0.003943   0.002874   0.006817  -0.000000  -0.000000  -0.013319   0.000000   0.000000   20.0000     0.0791
    3.000     0.000   0.120979   0.004218   0.002905   0.007123  -0.000000  -0.000000  -0.013769   0.000000  -0.000000   20.0000     0.0791
    3.200     0.000   0.124973   0.004502   0.002935   0.007437  -0.000000  -0.000000  -0.014219  -0.000000  -0.000000   20.0000     0.0791
    3.400     0.000   0.128963   0.004795   0.002963   0.007758  -0.000000  -0.000000  -0.014667   0.000000   0.000000   20.0000     0.0791
    3.600     0.000   0.132949   0.005097   0.002993   0.008089  -0.000000  -0.000000  -0.015115   0.000000   0.000000   20.0000     0.0792
    3.800     0.000   0.136930   0.005408   0.003023   0.008430  -0.000000  -0.000000  -0.015562   0.000000   0.000000   20.0000     0.0792
    4.000     0.000   0.140907   0.005727   0.003053   0.008780  -0.000000  -0.000000  -0.016008  -0.000000  -0.000000   20.0000     0.0792
    4.200     0.000   0.144879   0.006056   0.003082   0.009138  -0.000000  -0.000000  -0.016453   0.000000  -0.000000   20.0000     0.0792
    4.400     0.000   0.148846   0.006394   0.003113   0.009507  -0.000000  -0.000000  -0.016897   0.000000  -0.000000   20.0000     0.0792
    4.600     0.000   0.152809   0.006740   0.003145   0.009885  -0.000000  -0.000000  -0.017340   0.000000   0.000000   20.0000     0.0792
    4.800     0.000   0.156766   0.007095   0.003178   0.010273  -0.000000  -0.000000  -0.017782   0.000000  -0.000000   20.0000     0.0793
    5.000     0.000   0.160718   0.007459   0.003212   0.010671  -0.000000  -0.000000  -0.018224  -0.000000  -0.000000   20.0000     0.0793
    5.200     0.000   0.164665   0.007832   0.003245   0.011077  -0.000000  -0.000000  -0.018664   0.000000  -0.000000   20.0000     0.0793
    5.400     0.000   0.168606   0.008213   0.003279   0.011492  -0.000000  -0.000000  -0.019103   0.000000  -0.000000   20.0000     0.0793
    5.600     0.000   0.172542   0.008603   0.003313   0.011916  -0.000000  -0.000000  -0.019541   0.000000   0.000000   20.0000     0.0793
    5.800     0.000   0.176472   0.009001   0.003346   0.012347  -0.000000  -0.000000  -0.019978   0.000000  -0.000000   20.0000     0.0794
    6.000     0.000   0.180396   0.009408   0.003380   0.012788  -0.000000  -0.000000  -0.020414   0.000000   0.000000   20.0000     0.0794
    6.200     0.000   0.184315   0.009824   0.003416   0.013239  -0.000000  -0.000000  -0.020849   0.000000  -0.000000   20.0000     0.0794
    6.400     0.000   0.188226   0.010248   0.003451   0.013698  -0.000000  -0.000000  -0.021283   0.000000  -0.000000   20.0000     0.0794
    6.600     0.000   0.192132   0.010680   0.003490   0.014170  -0.000000  -0.000000  -0.021716   0.000000   0.000000   20.0000     0.0795
    6.800     0.000   0.196031   0.011121   0.003531   0.014651  -0.000000  -0.000000  -0.022147   0.000000  -0.000000   20.0000     0.0795
    7.000     0.000   0.199924   0.011570   0.003573   0.015143  -0.000000  -0.000000  -0.022578   0.000000   0.000000   20.0000     0.0795
    7.200     0.000   0.203810   0.012027   0.003619   0.015645  -0.000000  -0.000000  -0.023007   0.000000   0.000000   20.0000     0.0796
    7.400     0.000   0.207689   0.012492   0.003665   0.016158  -0.000000  -0.000000  -0.023435   0.000000  -0.000000   20.0000     0.0796
    7.600     0.000   0.211561   0.012966   0.003712   0.016677  -0.000000  -0.000000  -0.023862   0.000000  -0.000000   20.0000     0.0796
    7.800     0.000   0.215426   0.013448   0.003762   0.017210  -0.000000  -0.000000  -0.024287   0.000000  -0.000000   20.0000     0.0796
    8.000     0.000   0.219284   0.013937   0.003813   0.017750  -0.000000  -0.000000  -0.024712   0.000000  -0.000000   20.0000     0.0797
    8.200     0.000   0.223134   0.014435   0.003868   0.018303  -0.000000  -0.000000  -0.025135   0.000000   0.000000   20.0000     0.0797
    8.400     0.000   0.226977   0.014941   0.003920   0.018861  -0.000000  -0.000000  -0.025557   0.000000   0.000000   20.0000     0.0797
    8.600     0.000   0.230812   0.015454   0.003977   0.019431  -0.000000  -0.000000  -0.025977   0.000000  -0.000000   20.0000     0.0798
    8.800     0.000   0.234639   0.015976   0.004036   0.020011  -0.000000  -0.000000  -0.026396  -0.000000  -0.000000   20.0000     0.0798
    9.000     0.000   0.238459   0.016505   0.004092   0.020596  -0.000000  -0.000000  -0.026814   0.000000  -0.000000   20.0000     0.0798
    9.200     0.000   0.242270   0.017041   0.004150   0.021192  -0.000000  -0.000000  -0.027231   0.000000   0.000000   20.0000     0.0799
    9.400     0.000   0.246074   0.017586   0.004220   0.021805  -0.000000  -0.000000  -0.027646   0.000000   0.000000   20.0000     0.0799
    9.600     0.000   0.249869   0.018138   0.004282   0.022420  -0.000000  -0.000000  -0.028060   0.000000  -0.000000   20.0000     0.0799
    9.800     0.000   0.253655   0.018697   0.004345   0.023042  -0.000000  -0.000000  -0.028472   0.000000  -0.000000   20.0000     0.0800
   10.000     0.000   0.257433   0.019264   0.004407   0.023671  -0.000000  -0.000000  -0.028883   0.000000   0.000000   20.0000     0.0800
   10.200     0.000   0.261203   0.019839   0.004474   0.024313  -0.000000  -0.000000  -0.029292   0.000000  -0.000000   20.0000     0.0800
   10.400     0.000   0.264963   0.020420   0.004563   0.024983  -0.000000  -0.000000  -0.029701   0.000000  -0.000000   20.0000     0.0801
   10.600     0.000   0.268715   0.021009   0.004642   0.025652  -0.000000  -0.000000  -0.030108   0.000000   0.000000   20.0000     0.0801
   10.800     0.000   0.272457   0.021606   0.004712   0.026318  -0.000000  -0.000000  -0.030513   0.000000   0.000000   20.0000     0.0802
   11.000     0.000   0.276191   0.022209   0.004787   0.026995  -0.000000  -0.000000  -0.030916   0.000000   0.000000   20.0000     0.0802
   11.200     0.000   0.279915   0.022819   0.004859   0.027678  -0.000000  -0.000000  -0.031318   0.000000  -0.000000   20.0000     0.0802
   11.400     0.000   0.283630   0.023436   0.004934   0.028370  -0.000000  -0.000000  -0.031718   0.000000   0.000000   20.0000     0.0803
   11.600     0.000   0.287335   0.024061   0.005018   0.029079  -0.000000  -0.000000  -0.032117   0.000000  -0.000000   20.0000     0.0803
   11.800     0.000   0.291030   0.024692   0.005128   0.029819  -0.000000  -0.000000  -0.032516   0.000000  -0.000000   20.0000     0.0804
   12.000     0.000   0.294716   0.025329   0.005220   0.030549  -0.000000  -0.000000  -0.032912   0.000000  -0.000000   20.0000     0.0804
   12.200     0.000   0.298392   0.025974   0.005303   0.031277  -0.000000  -0.000000  -0.033306   0.000000   0.000000   20.0000     0.0804
   12.400     0.000   0.302058   0.026625   0.005411   0.032036  -0.000000  -0.000000  -0.033699   0.000000   0.000000   20.0000     0.0805
   12.600     0.000   0.305713   0.027283   0.005496   0.032779  -0.000000  -0.000000  -0.034090   0.000000   0.000000   20.0000     0.0805
   12.800     0.000   0.309359   0.027947   0.005578   0.033524  -0.000000  -0.000000  -0.034479   0.000000  -0.000000   20.0000     0.0806
   13.000     0.000   0.312994   0.028617   0.005664   0.034281  -0.000000  -0.000000  -0.034866   0.000000   0.000000   20.0000     0.0806
   13.200     0.000   0.316618   0.029294   0.005753   0.035047  -0.000000  -0.000000  -0.035252   0.000000  -0.000000   20.0000     0.0807
   13.400     0.000   0.320233   0.029977   0.005854   0.035831  -0.000000  -0.000000  -0.035636   0.000000   0.000000   20.0000     0.0807
   13.600     0.000   0.323836   0.030666   0.005984   0.036651  -0.000000  -0.000000  -0.036020   0.000000  -0.000000   20.0000     0.0808
   13.800     0.000   0.327428   0.031362   0.006150   0.037511  -0.000000  -0.000000  -0.036403   0.000000   0.000000   20.0000     0.0808
   14.000     0.000   0.331010   0.032063   0.006350   0.038413  -0.000000  -0.000000  -0.036787   0.000000  -0.000000   20.0000     0.0809
   14.200     0.000   0.334580   0.032770   0.006547   0.039317  -0.000000  -0.000000  -0.037168   0.000000  -0.000000   20.0000     0.0809
   14.400     0.000   0.338140   0.033483   0.006677   0.040160  -0.000000  -0.000000  -0.037545   0.000000  -0.000000   20.0000     0.0810
   14.600     0.000   0.341688   0.034202   0.006870   0.041072  -0.000000  -0.000000  -0.037923   0.000000  -0.000000   20.0000     0.0810
   14.800     0.000   0.345225   0.034926   0.007026   0.041952  -0.000000  -0.000000  -0.038297   0.000000  -0.000000   20.0000     0.0811
   15.000     0.000   0.348750   0.035656   0.007207   0.042863  -0.000000  -0.000000  -0.038670   0.000000   0.000000   20.0000     0.0811
   15.200     0.000   0.352264   0.036392   0.007459   0.043851  -0.000000  -0.000000  -0.039046   0.000000  -0.000000   20.0000     0.0812
   15.400     0.000   0.355766   0.037133   0.007808   0.044941  -0.000000  -0.000000  -0.039424   0.000000   0.000000   20.0000     0.0812
   15.600     0.000   0.359256   0.037879   0.008008   0.045887  -0.000000  -0.000000  -0.039792   0.000000  -0.000000   20.0000     0.0813


