xflr5 v6.47

Plane name :        Custer1-dA03
Polar name :        T1-20.0 m/s-VLM2-16.0kg-x39.1mm
Freestream speed :  20.000 m/s


   alpha      Beta       CL          CDi        CDv        CD         CY         Cl         Cm         Cn        Cni       QInf        XCP
   -4.000     0.000  -0.010091   0.000557   0.011301   0.011857  -0.000176  -0.020298  -0.105601  -0.000014   0.000007   20.0000    -3.6393
   -3.800     0.000   0.006544   0.000565   0.011146   0.011711  -0.000160  -0.020299  -0.107829  -0.000011   0.000007   20.0000     5.8297
   -3.600     0.000   0.023180   0.000594   0.011025   0.011620  -0.000143  -0.020300  -0.110058  -0.000011   0.000007   20.0000     1.7071
   -3.400     0.000   0.039816   0.000644   0.010903   0.011548  -0.000127  -0.020301  -0.112286  -0.000018   0.000007   20.0000     1.0295
   -3.200     0.000   0.056453   0.000715   0.010773   0.011488  -0.000111  -0.020301  -0.114516  -0.000020   0.000007   20.0000     0.7512
   -3.000     0.000   0.073089   0.000807   0.010659   0.011465  -0.000095  -0.020301  -0.116745  -0.000025   0.000007   20.0000     0.5997
   -2.800     0.000   0.089724   0.000919   0.010539   0.011458  -0.000080  -0.020301  -0.118975  -0.000031   0.000007   20.0000     0.5043
   -2.600     0.000   0.106359   0.001052   0.010422   0.011474  -0.000064  -0.020301  -0.121205  -0.000031   0.000007   20.0000     0.4388
   -2.400     0.000   0.122992   0.001206   0.010326   0.011533  -0.000049  -0.020300  -0.123435  -0.000036   0.000006   20.0000     0.3910
   -2.200     0.000   0.139622   0.001381   0.010226   0.011607  -0.000035  -0.020300  -0.125665  -0.000039   0.000006   20.0000     0.3545
   -2.000     0.000   0.156251   0.001577   0.010133   0.011709  -0.000020  -0.020299  -0.127895  -0.000042   0.000006   20.0000     0.3259
   -1.800     0.000   0.172876   0.001793   0.010042   0.011835  -0.000006  -0.020297  -0.130124  -0.000047   0.000006   20.0000     0.3027
   -1.600     0.000   0.189499   0.002030   0.009955   0.011985   0.000008  -0.020296  -0.132353  -0.000050   0.000006   20.0000     0.2837
   -1.400     0.000   0.206117   0.002288   0.009871   0.012159   0.000022  -0.020294  -0.134582  -0.000054   0.000006   20.0000     0.2676
   -1.200     0.000   0.222732   0.002566   0.009799   0.012365   0.000035  -0.020292  -0.136810  -0.000057   0.000006   20.0000     0.2540
   -1.000     0.000   0.239342   0.002866   0.009732   0.012598   0.000048  -0.020290  -0.139037  -0.000059   0.000006   20.0000     0.2423
   -0.800     0.000   0.255947   0.003185   0.009673   0.012858   0.000061  -0.020287  -0.141264  -0.000059   0.000006   20.0000     0.2321
   -0.600     0.000   0.272547   0.003526   0.009620   0.013146   0.000074  -0.020284  -0.143489  -0.000058   0.000006   20.0000     0.2232
   -0.400     0.000   0.289140   0.003887   0.009573   0.013460   0.000086  -0.020281  -0.145714  -0.000056   0.000006   20.0000     0.2152
   -0.200     0.000   0.305728   0.004269   0.009528   0.013797   0.000098  -0.020278  -0.147938  -0.000054   0.000006   20.0000     0.2082
    0.000     0.000   0.322309   0.004671   0.009480   0.014151   0.000110  -0.020275  -0.150160  -0.000051   0.000006   20.0000     0.2018
    0.200     0.000   0.338883   0.005094   0.009429   0.014523   0.000122  -0.020271  -0.152381  -0.000049   0.000006   20.0000     0.1961
    0.400     0.000   0.355450   0.005537   0.009370   0.014907   0.000133  -0.020267  -0.154601  -0.000046   0.000006   20.0000     0.1909
    0.600     0.000   0.372009   0.006001   0.009298   0.015299   0.000144  -0.020263  -0.156819  -0.000043   0.000006   20.0000     0.1862
    0.800     0.000   0.388559   0.006485   0.009207   0.015692   0.000155  -0.020258  -0.159036  -0.000038   0.000006   20.0000     0.1819
    1.000     0.000   0.405101   0.006989   0.009096   0.016085   0.000165  -0.020253  -0.161250  -0.000030   0.000006   20.0000     0.1780
    1.200     0.000   0.421634   0.007514   0.008977   0.016491   0.000175  -0.020248  -0.163463  -0.000020   0.000006   20.0000     0.1743
    1.400     0.000   0.438157   0.008059   0.008850   0.016909   0.000185  -0.020243  -0.165674  -0.000005   0.000006   20.0000     0.1709
    1.600     0.000   0.454671   0.008624   0.008749   0.017373   0.000195  -0.020238  -0.167883   0.000007   0.000005   20.0000     0.1678
    1.800     0.000   0.471173   0.009209   0.008685   0.017894   0.000204  -0.020232  -0.170089   0.000016   0.000005   20.0000     0.1649
    2.000     0.000   0.487666   0.009815   0.008650   0.018465   0.000214  -0.020226  -0.172294   0.000025   0.000005   20.0000     0.1622
    2.200     0.000   0.504147   0.010440   0.008643   0.019083   0.000222  -0.020220  -0.174496   0.000032   0.000005   20.0000     0.1597
    2.400     0.000   0.520616   0.011085   0.008660   0.019745   0.000231  -0.020213  -0.176696   0.000037   0.000005   20.0000     0.1573
    2.600     0.000   0.537073   0.011751   0.008693   0.020444   0.000239  -0.020207  -0.178893   0.000041   0.000005   20.0000     0.1551
    2.800     0.000   0.553518   0.012436   0.008733   0.021169   0.000247  -0.020200  -0.181088   0.000044   0.000005   20.0000     0.1530
    3.000     0.000   0.569951   0.013141   0.008770   0.021911   0.000255  -0.020192  -0.183281   0.000044   0.000005   20.0000     0.1511
    3.200     0.000   0.586370   0.013865   0.008806   0.022671   0.000263  -0.020185  -0.185470   0.000044   0.000005   20.0000     0.1492
    3.400     0.000   0.602775   0.014609   0.008845   0.023454   0.000270  -0.020177  -0.187656   0.000043   0.000005   20.0000     0.1475
    3.600     0.000   0.619166   0.015373   0.008885   0.024258   0.000277  -0.020169  -0.189840   0.000042   0.000005   20.0000     0.1458
    3.800     0.000   0.635543   0.016156   0.008929   0.025084   0.000283  -0.020161  -0.192020   0.000040   0.000005   20.0000     0.1442
    4.000     0.000   0.651905   0.016958   0.008982   0.025940   0.000290  -0.020153  -0.194197   0.000038   0.000005   20.0000     0.1428
    4.200     0.000   0.668252   0.017780   0.009042   0.026821   0.000296  -0.020144  -0.196371   0.000037   0.000005   20.0000     0.1413
    4.400     0.000   0.684583   0.018621   0.009102   0.027722   0.000302  -0.020135  -0.198541   0.000037   0.000005   20.0000     0.1400
    4.600     0.000   0.700898   0.019480   0.009165   0.028645   0.000307  -0.020126  -0.200708   0.000039   0.000005   20.0000     0.1387
    4.800     0.000   0.717196   0.020359   0.009236   0.029596   0.000312  -0.020116  -0.202871   0.000041   0.000005   20.0000     0.1375
    5.000     0.000   0.733478   0.021257   0.009310   0.030567   0.000317  -0.020107  -0.205031   0.000043   0.000004   20.0000     0.1363
    5.200     0.000   0.749743   0.022174   0.009387   0.031561   0.000322  -0.020097  -0.207187   0.000045   0.000004   20.0000     0.1352
    5.400     0.000   0.765989   0.023109   0.009460   0.032569   0.000326  -0.020087  -0.209339   0.000047   0.000004   20.0000     0.1342
    5.600     0.000   0.782218   0.024063   0.009531   0.033594   0.000331  -0.020076  -0.211486   0.000050   0.000004   20.0000     0.1331
    5.800     0.000   0.798428   0.025036   0.009605   0.034640   0.000334  -0.020066  -0.213630   0.000053   0.000004   20.0000     0.1322
    6.000     0.000   0.814620   0.026027   0.009688   0.035715   0.000338  -0.020055  -0.215769   0.000056   0.000004   20.0000     0.1312
    6.200     0.000   0.830792   0.027036   0.009773   0.036809   0.000341  -0.020044  -0.217904   0.000059   0.000004   20.0000     0.1303
    6.400     0.000   0.846945   0.028063   0.009859   0.037922   0.000344  -0.020032  -0.220035   0.000063   0.000004   20.0000     0.1295
    6.600     0.000   0.863077   0.029108   0.009945   0.039054   0.000347  -0.020021  -0.222161   0.000065   0.000004   20.0000     0.1286
    6.800     0.000   0.879190   0.030172   0.010025   0.040197   0.000350  -0.020009  -0.224283   0.000067   0.000004   20.0000     0.1279
    7.000     0.000   0.895281   0.031253   0.010112   0.041365   0.000352  -0.019997  -0.226399   0.000070   0.000004   20.0000     0.1271
    7.200     0.000   0.911351   0.032352   0.010205   0.042556   0.000354  -0.019985  -0.228511   0.000072   0.000004   20.0000     0.1263
    7.400     0.000   0.927400   0.033468   0.010303   0.043772   0.000355  -0.019972  -0.230618   0.000075   0.000004   20.0000     0.1256
    7.600     0.000   0.943427   0.034602   0.010402   0.045004   0.000357  -0.019959  -0.232720   0.000079   0.000004   20.0000     0.1250
    7.800     0.000   0.959431   0.035754   0.010501   0.046255   0.000358  -0.019946  -0.234817   0.000082   0.000004   20.0000     0.1243
    8.000     0.000   0.975413   0.036922   0.010591   0.047513   0.000359  -0.019933  -0.236908   0.000084   0.000004   20.0000     0.1237
    8.200     0.000   0.991371   0.038108   0.010685   0.048793   0.000359  -0.019919  -0.238994   0.000087   0.000003   20.0000     0.1230
    8.400     0.000   1.007307   0.039310   0.010792   0.050102   0.000359  -0.019905  -0.241075   0.000090   0.000003   20.0000     0.1224
    8.600     0.000   1.023218   0.040530   0.010910   0.051440   0.000359  -0.019891  -0.243150   0.000093   0.000003   20.0000     0.1219
    8.800     0.000   1.039105   0.041766   0.011024   0.052790   0.000359  -0.019877  -0.245220   0.000097   0.000003   20.0000     0.1213
    9.000     0.000   1.054968   0.043018   0.011126   0.054144   0.000358  -0.019863  -0.247284   0.000100   0.000003   20.0000     0.1208
    9.200     0.000   1.070805   0.044287   0.011230   0.055517   0.000357  -0.019848  -0.249341   0.000104   0.000003   20.0000     0.1203
    9.400     0.000   1.086617   0.045573   0.011353   0.056925   0.000356  -0.019833  -0.251394   0.000109   0.000003   20.0000     0.1198
    9.600     0.000   1.102404   0.046874   0.011493   0.058367   0.000355  -0.019818  -0.253440   0.000113   0.000003   20.0000     0.1193
    9.800     0.000   1.118164   0.048191   0.011622   0.059814   0.000353  -0.019802  -0.255481   0.000115   0.000003   20.0000     0.1188
   10.000     0.000   1.133898   0.049524   0.011738   0.061263   0.000351  -0.019786  -0.257514   0.000120   0.000003   20.0000     0.1183
   10.200     0.000   1.149606   0.050873   0.011885   0.062758   0.000349  -0.019770  -0.259542   0.000129   0.000003   20.0000     0.1179
   10.400     0.000   1.165286   0.052237   0.012056   0.064293   0.000346  -0.019754  -0.261564   0.000136   0.000003   20.0000     0.1175
   10.600     0.000   1.180939   0.053617   0.012208   0.065825   0.000343  -0.019738  -0.263580   0.000138   0.000003   20.0000     0.1170
   10.800     0.000   1.196563   0.055012   0.012396   0.067408   0.000340  -0.019721  -0.265589   0.000149   0.000003   20.0000     0.1166
   11.000     0.000   1.212160   0.056422   0.012610   0.069032   0.000337  -0.019704  -0.267593   0.000161   0.000002   20.0000     0.1162


