xflr5 v6.47

Plane name :        Custer1-dR03
Polar name :        T1-20.0 m/s-VLM2-16.0kg-x39.1mm
Freestream speed :  20.000 m/s


   alpha      Beta       CL          CDi        CDv        CD         CY         Cl         Cm         Cn        Cni       QInf        XCP
   -4.000     0.000  -0.011088   0.000163   0.001282   0.001445   0.000000   0.000000  -0.003914   0.000000   0.000000   20.0000    -0.0848
   -3.800     0.000  -0.009950   0.000132   0.001276   0.001407   0.000000   0.000000  -0.004009   0.000000   0.000000   20.0000    -0.1022
   -3.600     0.000  -0.008811   0.000103   0.001270   0.001373   0.000000   0.000000  -0.004103   0.000000  -0.000000   20.0000    -0.1242
   -3.400     0.000  -0.007671   0.000078   0.001264   0.001342   0.000000   0.000000  -0.004198  -0.000000  -0.000000   20.0000    -0.1527
   -3.200     0.000  -0.006531   0.000057   0.001258   0.001315   0.000000   0.000000  -0.004292   0.000000   0.000000   20.0000    -0.1912
   -3.000     0.000  -0.005391   0.000039   0.001253   0.001291   0.000000   0.000000  -0.004386   0.000000  -0.000000   20.0000    -0.2459
   -2.800     0.000  -0.004250   0.000024   0.001247   0.001271   0.000000   0.000000  -0.004481   0.000000   0.000000   20.0000    -0.3301
   -2.600     0.000  -0.003109   0.000013   0.001241   0.001254   0.000000   0.000000  -0.004575  -0.000000   0.000000   20.0000    -0.4760
   -2.400     0.000  -0.001968   0.000005   0.001235   0.001241   0.000000   0.000000  -0.004669   0.000000   0.000000   20.0000    -0.7912
   -2.200     0.000  -0.000827   0.000001   0.001230   0.001231   0.000000   0.000000  -0.004763  -0.000000  -0.000000   20.0000    -1.9770
   -2.000     0.000   0.000315   0.000001   0.001226   0.001226   0.000000   0.000000  -0.004856   0.000000   0.000000   20.0000     5.4305
   -1.800     0.000   0.001457   0.000003   0.001222   0.001225   0.000000   0.000000  -0.004950   0.000000   0.000000   20.0000     1.2274
   -1.600     0.000   0.002599   0.000010   0.001218   0.001227   0.000000   0.000000  -0.005044  -0.000000   0.000000   20.0000     0.7177
   -1.400     0.000   0.003740   0.000019   0.001213   0.001232   0.000000   0.000000  -0.005137   0.000000   0.000000   20.0000     0.5192
   -1.200     0.000   0.004882   0.000032   0.001208   0.001241   0.000000  -0.000000  -0.005231   0.000000   0.000000   20.0000     0.4136
   -1.000     0.000   0.006024   0.000049   0.001204   0.001253   0.000000   0.000000  -0.005324   0.000000  -0.000000   20.0000     0.3479
   -0.800     0.000   0.007165   0.000069   0.001199   0.001268   0.000000  -0.000000  -0.005417  -0.000000   0.000000   20.0000     0.3032
   -0.600     0.000   0.008307   0.000093   0.001194   0.001287   0.000000  -0.000000  -0.005510  -0.000000  -0.000000   20.0000     0.2708
   -0.400     0.000   0.009448   0.000120   0.001190   0.001309   0.000000   0.000000  -0.005603   0.000000   0.000000   20.0000     0.2463
   -0.200     0.000   0.010589   0.000150   0.001185   0.001335   0.000000  -0.000000  -0.005696   0.000000   0.000000   20.0000     0.2270
    0.000     0.000   0.011729   0.000184   0.001181   0.001365   0.000000  -0.000000  -0.005788   0.000000   0.000000   20.0000     0.2115
    0.200     0.000   0.012869   0.000222   0.001177   0.001399   0.000000  -0.000000  -0.005881  -0.000000  -0.000000   20.0000     0.1987
    0.400     0.000   0.014009   0.000263   0.001174   0.001437   0.000000   0.000000  -0.005973  -0.000000  -0.000000   20.0000     0.1880
    0.600     0.000   0.015148   0.000307   0.001171   0.001478   0.000000  -0.000000  -0.006065   0.000000  -0.000000   20.0000     0.1789
    0.800     0.000   0.016287   0.000355   0.001167   0.001522   0.000000  -0.000000  -0.006157  -0.000000  -0.000000   20.0000     0.1711
    1.000     0.000   0.017425   0.000406   0.001164   0.001570   0.000000  -0.000000  -0.006249  -0.000000  -0.000000   20.0000     0.1643
    1.200     0.000   0.018562   0.000461   0.001160   0.001621   0.000000  -0.000000  -0.006341  -0.000000   0.000000   20.0000     0.1584
    1.400     0.000   0.019699   0.000519   0.001157   0.001676   0.000000  -0.000000  -0.006432   0.000000  -0.000000   20.0000     0.1532
    1.600     0.000   0.020835   0.000580   0.001154   0.001734   0.000000  -0.000000  -0.006523  -0.000000  -0.000000   20.0000     0.1485
    1.800     0.000   0.021970   0.000645   0.001151   0.001796   0.000000  -0.000000  -0.006615   0.000000   0.000000   20.0000     0.1443
    2.000     0.000   0.023104   0.000714   0.001148   0.001861   0.000000  -0.000000  -0.006705  -0.000000   0.000000   20.0000     0.1405
    2.200     0.000   0.024238   0.000786   0.001145   0.001930   0.000000  -0.000000  -0.006796  -0.000000  -0.000000   20.0000     0.1371
    2.400     0.000   0.025370   0.000861   0.001141   0.002002   0.000000  -0.000000  -0.006887   0.000000  -0.000000   20.0000     0.1340
    2.600     0.000   0.026502   0.000939   0.001138   0.002078   0.000000   0.000000  -0.006977   0.000000  -0.000000   20.0000     0.1311
    2.800     0.000   0.027632   0.001021   0.001135   0.002157   0.000000  -0.000000  -0.007067  -0.000000  -0.000000   20.0000     0.1285
    3.000     0.000   0.028761   0.001107   0.001133   0.002240   0.000000  -0.000000  -0.007157  -0.000000  -0.000000   20.0000     0.1261
    3.200     0.000   0.029890   0.001195   0.001130   0.002326   0.000000  -0.000000  -0.007247  -0.000000   0.000000   20.0000     0.1239
    3.400     0.000   0.031017   0.001288   0.001127   0.002415   0.000000   0.000000  -0.007337  -0.000000  -0.000000   20.0000     0.1219
    3.600     0.000   0.032142   0.001383   0.001125   0.002508   0.000000  -0.000000  -0.007426   0.000000   0.000000   20.0000     0.1200
    3.800     0.000   0.033267   0.001482   0.001121   0.002603   0.000000  -0.000000  -0.007515   0.000000   0.000000   20.0000     0.1182
    4.000     0.000   0.034390   0.001584   0.001118   0.002702   0.000000   0.000000  -0.007604  -0.000000  -0.000000   20.0000     0.1166
    4.200     0.000   0.035512   0.001689   0.001114   0.002804   0.000000  -0.000000  -0.007692  -0.000000  -0.000000   20.0000     0.1150
    4.400     0.000   0.036632   0.001798   0.001110   0.002908   0.000000  -0.000000  -0.007781  -0.000000   0.000000   20.0000     0.1136
    4.600     0.000   0.037751   0.001910   0.001107   0.003017   0.000000  -0.000000  -0.007869  -0.000000  -0.000000   20.0000     0.1122
    4.800     0.000   0.038868   0.002025   0.001104   0.003129   0.000000  -0.000000  -0.007957   0.000000   0.000000   20.0000     0.1109
    5.000     0.000   0.039984   0.002144   0.001101   0.003245   0.000000  -0.000000  -0.008044  -0.000000  -0.000000   20.0000     0.1097
    5.200     0.000   0.041098   0.002266   0.001101   0.003366   0.000000  -0.000000  -0.008132  -0.000000  -0.000000   20.0000     0.1086
    5.400     0.000   0.042211   0.002391   0.001100   0.003491   0.000000  -0.000000  -0.008219   0.000000   0.000000   20.0000     0.1075
    5.600     0.000   0.043322   0.002519   0.001103   0.003622   0.000000  -0.000000  -0.008306  -0.000000  -0.000000   20.0000     0.1065
    5.800     0.000   0.044431   0.002650   0.001107   0.003758   0.000000  -0.000000  -0.008393   0.000000   0.000000   20.0000     0.1056
    6.000     0.000   0.045538   0.002785   0.001112   0.003897   0.000000  -0.000000  -0.008479  -0.000000  -0.000000   20.0000     0.1047
    6.200     0.000   0.046643   0.002923   0.001116   0.004039   0.000000  -0.000000  -0.008565  -0.000000  -0.000000   20.0000     0.1038
    6.400     0.000   0.047746   0.003064   0.001121   0.004185   0.000000  -0.000000  -0.008651   0.000000   0.000000   20.0000     0.1030
    6.600     0.000   0.048848   0.003208   0.001126   0.004334   0.000000  -0.000000  -0.008737   0.000000   0.000000   20.0000     0.1022
    6.800     0.000   0.049947   0.003355   0.001130   0.004485   0.000000  -0.000000  -0.008822  -0.000000  -0.000000   20.0000     0.1014
    7.000     0.000   0.051045   0.003506   0.001135   0.004641   0.000000  -0.000000  -0.008907   0.000000   0.000000   20.0000     0.1007
    7.200     0.000   0.052140   0.003659   0.001141   0.004801   0.000000  -0.000000  -0.008992   0.000000   0.000000   20.0000     0.1001
    7.400     0.000   0.053233   0.003816   0.001147   0.004963   0.000000  -0.000000  -0.009077   0.000000   0.000000   20.0000     0.0994
    7.600     0.000   0.054324   0.003976   0.001154   0.005130   0.000000  -0.000000  -0.009161  -0.000000  -0.000000   20.0000     0.0988
    7.800     0.000   0.055413   0.004139   0.001161   0.005299   0.000000  -0.000000  -0.009245   0.000000   0.000000   20.0000     0.0982
    8.000     0.000   0.056499   0.004304   0.001168   0.005472   0.000000  -0.000000  -0.009329   0.000000   0.000000   20.0000     0.0976
    8.200     0.000   0.057583   0.004473   0.001175   0.005648   0.000000  -0.000000  -0.009412   0.000000   0.000000   20.0000     0.0971
    8.400     0.000   0.058665   0.004645   0.001182   0.005827   0.000000  -0.000000  -0.009495   0.000000  -0.000000   20.0000     0.0966
    8.600     0.000   0.059745   0.004820   0.001188   0.006008   0.000000  -0.000000  -0.009578  -0.000000  -0.000000   20.0000     0.0961
    8.800     0.000   0.060821   0.004997   0.001196   0.006193   0.000000  -0.000000  -0.009660  -0.000000  -0.000000   20.0000     0.0956
    9.000     0.000   0.061896   0.005178   0.001203   0.006380   0.000000  -0.000000  -0.009742   0.000000   0.000000   20.0000     0.0952
    9.200     0.000   0.062968   0.005361   0.001209   0.006571   0.000000  -0.000000  -0.009824  -0.000000  -0.000000   20.0000     0.0947
    9.400     0.000   0.064037   0.005548   0.001217   0.006764   0.000000  -0.000000  -0.009905  -0.000000  -0.000000   20.0000     0.0943
    9.600     0.000   0.065103   0.005737   0.001224   0.006961   0.000000  -0.000000  -0.009987   0.000000   0.000000   20.0000     0.0939
    9.800     0.000   0.066167   0.005929   0.001231   0.007160   0.000000  -0.000000  -0.010067   0.000000   0.000000   20.0000     0.0935
   10.000     0.000   0.067229   0.006124   0.001238   0.007362   0.000000  -0.000000  -0.010148  -0.000000  -0.000000   20.0000     0.0931
   10.200     0.000   0.068287   0.006322   0.001245   0.007567   0.000000  -0.000000  -0.010228   0.000000   0.000000   20.0000     0.0928
   10.400     0.000   0.069343   0.006522   0.001253   0.007775   0.000000  -0.000000  -0.010307   0.000000   0.000000   20.0000     0.0924
   10.600     0.000   0.070395   0.006726   0.001260   0.007985   0.000000  -0.000000  -0.010387  -0.000000  -0.000000   20.0000     0.0921
   10.800     0.000   0.071445   0.006932   0.001267   0.008198   0.000000  -0.000000  -0.010466   0.000000   0.000000   20.0000     0.0918
   11.000     0.000   0.072492   0.007140   0.001274   0.008415   0.000000  -0.000000  -0.010544   0.000000   0.000000   20.0000     0.0915
   11.200     0.000   0.073536   0.007352   0.001282   0.008634   0.000000  -0.000000  -0.010623   0.000000  -0.000000   20.0000     0.0912
   11.400     0.000   0.074577   0.007566   0.001290   0.008856   0.000000  -0.000000  -0.010701   0.000000   0.000000   20.0000     0.0909
   11.600     0.000   0.075615   0.007782   0.001298   0.009080   0.000000  -0.000000  -0.010778  -0.000000  -0.000000   20.0000     0.0906
   11.800     0.000   0.076650   0.008002   0.001306   0.009308   0.000000  -0.000000  -0.010855   0.000000   0.000000   20.0000     0.0904
   12.000     0.000   0.077682   0.008224   0.001315   0.009538   0.000000  -0.000000  -0.010932   0.000000   0.000000   20.0000     0.0901
   12.200     0.000   0.078710   0.008448   0.001324   0.009772   0.000000  -0.000000  -0.011009  -0.000000  -0.000000   20.0000     0.0899
   12.400     0.000   0.079735   0.008675   0.001333   0.010008   0.000000  -0.000000  -0.011085   0.000000   0.000000   20.0000     0.0896
   12.600     0.000   0.080757   0.008904   0.001342   0.010246   0.000000  -0.000000  -0.011160  -0.000000  -0.000000   20.0000     0.0894
   12.800     0.000   0.081776   0.009136   0.001352   0.010488   0.000000  -0.000000  -0.011236   0.000000   0.000000   20.0000     0.0892
   13.000     0.000   0.082791   0.009371   0.001362   0.010732   0.000000  -0.000000  -0.011311  -0.000000  -0.000000   20.0000     0.0890
   13.200     0.000   0.083803   0.009607   0.001373   0.010980   0.000000  -0.000000  -0.011385   0.000000   0.000000   20.0000     0.0887
   13.400     0.000   0.084812   0.009847   0.001383   0.011230   0.000000  -0.000000  -0.011459   0.000000   0.000000   20.0000     0.0885
   13.600     0.000   0.085817   0.010088   0.001395   0.011483   0.000000  -0.000000  -0.011533   0.000000   0.000000   20.0000     0.0884
   13.800     0.000   0.086818   0.010332   0.001406   0.011738   0.000000  -0.000000  -0.011606   0.000000   0.000000   20.0000     0.0882
   14.000     0.000   0.087816   0.010578   0.001419   0.011997   0.000000  -0.000000  -0.011679   0.000000   0.000000   20.0000     0.0880
   14.200     0.000   0.088811   0.010827   0.001431   0.012257   0.000000  -0.000000  -0.011752   0.000000   0.000000   20.0000     0.0878
   14.400     0.000   0.089802   0.011077   0.001442   0.012520   0.000000  -0.000000  -0.011824   0.000000   0.000000   20.0000     0.0877
   14.600     0.000   0.090789   0.011330   0.001455   0.012786   0.000000  -0.000000  -0.011896   0.000000   0.000000   20.0000     0.0875
   14.800     0.000   0.091772   0.011585   0.001468   0.013053   0.000000  -0.000000  -0.011967   0.000000   0.000000   20.0000     0.0874
   15.000     0.000   0.092752   0.011843   0.001481   0.013323   0.000000  -0.000000  -0.012038   0.000000   0.000000   20.0000     0.0872
   15.200     0.000   0.093728   0.012102   0.001494   0.013596   0.000000  -0.000000  -0.012108   0.000000   0.000000   20.0000     0.0871
   15.400     0.000   0.094700   0.012364   0.001508   0.013871   0.000000  -0.000000  -0.012178   0.000000   0.000000   20.0000     0.0869
   15.600     0.000   0.095669   0.012627   0.001521   0.014148   0.000000  -0.000000  -0.012248  -0.000000  -0.000000   20.0000     0.0868


