xflr5 v6.47

Plane name :        Custer1-dE000
Polar name :        T1-20.0 m/s-VLM2-16.0kg-x39.1mm
Freestream speed :  20.000 m/s


   alpha      Beta       CL          CDi        CDv        CD         CY         Cl         Cm         Cn        Cni       QInf        XCP
   -4.000     0.000  -0.080730   0.001875   0.002617   0.004493  -0.000000  -0.000000   0.009233  -0.000000   0.000000   20.0000     0.0792
   -3.800     0.000  -0.076712   0.001693   0.002589   0.004283  -0.000000  -0.000000   0.008774  -0.000000   0.000000   20.0000     0.0792
   -3.600     0.000  -0.072691   0.001520   0.002563   0.004084  -0.000000  -0.000000   0.008315  -0.000000   0.000000   20.0000     0.0792
   -3.400     0.000  -0.068667   0.001357   0.002536   0.003892  -0.000000  -0.000000   0.007855  -0.000000   0.000000   20.0000     0.0791
   -3.200     0.000  -0.064641   0.001202   0.002510   0.003712  -0.000000  -0.000000   0.007395  -0.000000   0.000000   20.0000     0.0791
   -3.000     0.000  -0.060612   0.001057   0.002484   0.003541  -0.000000  -0.000000   0.006934  -0.000000   0.000000   20.0000     0.0791
   -2.800     0.000  -0.056581   0.000921   0.002459   0.003380  -0.000000  -0.000000   0.006473  -0.000000   0.000000   20.0000     0.0791
   -2.600     0.000  -0.052548   0.000794   0.002436   0.003231  -0.000000  -0.000000   0.006012  -0.000000  -0.000000   20.0000     0.0791
   -2.400     0.000  -0.048514   0.000677   0.002413   0.003090  -0.000000  -0.000000   0.005550  -0.000000   0.000000   20.0000     0.0791
   -2.200     0.000  -0.044477   0.000569   0.002393   0.002962  -0.000000  -0.000000   0.005089  -0.000000   0.000000   20.0000     0.0791
   -2.000     0.000  -0.040439   0.000470   0.002373   0.002843  -0.000000  -0.000000   0.004627  -0.000000  -0.000000   20.0000     0.0791
   -1.800     0.000  -0.036399   0.000381   0.002355   0.002736  -0.000000  -0.000000   0.004165  -0.000000  -0.000000   20.0000     0.0791
   -1.600     0.000  -0.032358   0.000301   0.002338   0.002640  -0.000000  -0.000000   0.003702  -0.000000  -0.000000   20.0000     0.0791
   -1.400     0.000  -0.028316   0.000231   0.002324   0.002554  -0.000000  -0.000000   0.003240  -0.000000   0.000000   20.0000     0.0791
   -1.200     0.000  -0.024273   0.000169   0.002312   0.002481  -0.000000  -0.000000   0.002777   0.000000  -0.000000   20.0000     0.0791
   -1.000     0.000  -0.020229   0.000118   0.002301   0.002419  -0.000000  -0.000000   0.002315  -0.000000  -0.000000   20.0000     0.0791
   -0.800     0.000  -0.016184   0.000075   0.002292   0.002367  -0.000000  -0.000000   0.001852  -0.000000  -0.000000   20.0000     0.0791
   -0.600     0.000  -0.012138   0.000042   0.002285   0.002328  -0.000000  -0.000000   0.001389  -0.000000  -0.000000   20.0000     0.0791
   -0.400     0.000  -0.008092   0.000019   0.002280   0.002299  -0.000000  -0.000000   0.000926   0.000000   0.000000   20.0000     0.0791
   -0.200     0.000  -0.004046   0.000005   0.002278   0.002282  -0.000000  -0.000000   0.000463  -0.000000   0.000000   20.0000     0.0791
    0.000     0.000   0.000000   0.000000   0.002276   0.002276   0.000000   0.000000   0.000000  -0.000000   0.000000   20.0000     0.0000
    0.200     0.000   0.004046   0.000005   0.002278   0.002282  -0.000000   0.000000  -0.000463  -0.000000   0.000000   20.0000     0.0791
    0.400     0.000   0.008092   0.000019   0.002280   0.002299  -0.000000   0.000000  -0.000926  -0.000000  -0.000000   20.0000     0.0791
    0.600     0.000   0.012138   0.000042   0.002285   0.002328  -0.000000   0.000000  -0.001389   0.000000   0.000000   20.0000     0.0791
    0.800     0.000   0.016184   0.000075   0.002292   0.002367  -0.000000   0.000000  -0.001852  -0.000000  -0.000000   20.0000     0.0791
    1.000     0.000   0.020229   0.000118   0.002301   0.002419  -0.000000   0.000000  -0.002315  -0.000000  -0.000000   20.0000     0.0791
    1.200     0.000   0.024273   0.000169   0.002312   0.002481  -0.000000   0.000000  -0.002777  -0.000000   0.000000   20.0000     0.0791
    1.400     0.000   0.028316   0.000231   0.002324   0.002554  -0.000000   0.000000  -0.003240  -0.000000  -0.000000   20.0000     0.0791
    1.600     0.000   0.032358   0.000301   0.002338   0.002640  -0.000000   0.000000  -0.003702  -0.000000  -0.000000   20.0000     0.0791
    1.800     0.000   0.036399   0.000381   0.002355   0.002736  -0.000000   0.000000  -0.004165  -0.000000  -0.000000   20.0000     0.0791
    2.000     0.000   0.040439   0.000470   0.002373   0.002843  -0.000000   0.000000  -0.004627  -0.000000  -0.000000   20.0000     0.0791
    2.200     0.000   0.044477   0.000569   0.002393   0.002962  -0.000000   0.000000  -0.005089  -0.000000   0.000000   20.0000     0.0791
    2.400     0.000   0.048514   0.000677   0.002413   0.003090  -0.000000   0.000000  -0.005550  -0.000000  -0.000000   20.0000     0.0791
    2.600     0.000   0.052548   0.000794   0.002435   0.003229  -0.000000   0.000000  -0.006012  -0.000000  -0.000000   20.0000     0.0791
    2.800     0.000   0.056581   0.000921   0.002459   0.003379  -0.000000   0.000000  -0.006473  -0.000000   0.000000   20.0000     0.0791
    3.000     0.000   0.060612   0.001057   0.002483   0.003540  -0.000000   0.000000  -0.006934  -0.000000   0.000000   20.0000     0.0791
    3.200     0.000   0.064641   0.001202   0.002509   0.003711  -0.000000   0.000000  -0.007395  -0.000000   0.000000   20.0000     0.0791
    3.400     0.000   0.068667   0.001357   0.002535   0.003892  -0.000000   0.000000  -0.007855  -0.000000  -0.000000   20.0000     0.0791
    3.600     0.000   0.072691   0.001520   0.002563   0.004083  -0.000000   0.000000  -0.008315  -0.000000   0.000000   20.0000     0.0792
    3.800     0.000   0.076712   0.001693   0.002589   0.004282  -0.000000   0.000000  -0.008774  -0.000000  -0.000000   20.0000     0.0792
    4.000     0.000   0.080730   0.001875   0.002617   0.004492  -0.000000   0.000000  -0.009233  -0.000000   0.000000   20.0000     0.0792
    4.200     0.000   0.084745   0.002067   0.002645   0.004712  -0.000000   0.000000  -0.009692  -0.000000   0.000000   20.0000     0.0792
    4.400     0.000   0.088758   0.002267   0.002674   0.004941  -0.000000   0.000000  -0.010150  -0.000000   0.000000   20.0000     0.0792
    4.600     0.000   0.092767   0.002477   0.002702   0.005179  -0.000000   0.000000  -0.010608  -0.000000  -0.000000   20.0000     0.0792
    4.800     0.000   0.096772   0.002696   0.002730   0.005426  -0.000000   0.000000  -0.011066  -0.000000   0.000000   20.0000     0.0792
    5.000     0.000   0.100774   0.002924   0.002758   0.005682  -0.000000   0.000000  -0.011522  -0.000000  -0.000000   20.0000     0.0793
    5.200     0.000   0.104773   0.003161   0.002785   0.005946  -0.000000   0.000000  -0.011979  -0.000000   0.000000   20.0000     0.0793
    5.400     0.000   0.108767   0.003407   0.002815   0.006221  -0.000000   0.000000  -0.012434  -0.000000  -0.000000   20.0000     0.0793
    5.600     0.000   0.112758   0.003662   0.002843   0.006504  -0.000000   0.000000  -0.012890  -0.000000   0.000000   20.0000     0.0793
    5.800     0.000   0.116745   0.003926   0.002872   0.006798  -0.000000   0.000000  -0.013344  -0.000000  -0.000000   20.0000     0.0793
    6.000     0.000   0.120727   0.004198   0.002903   0.007101  -0.000000   0.000000  -0.013798  -0.000000  -0.000000   20.0000     0.0793
    6.200     0.000   0.124705   0.004480   0.002933   0.007413  -0.000000   0.000000  -0.014251  -0.000000  -0.000000   20.0000     0.0794
    6.400     0.000   0.128679   0.004771   0.002961   0.007732  -0.000000   0.000000  -0.014704  -0.000000  -0.000000   20.0000     0.0794
    6.600     0.000   0.132647   0.005070   0.002990   0.008061  -0.000000   0.000000  -0.015156  -0.000000   0.000000   20.0000     0.0794
    6.800     0.000   0.136611   0.005379   0.003020   0.008399  -0.000000   0.000000  -0.015607  -0.000000  -0.000000   20.0000     0.0794
    7.000     0.000   0.140571   0.005696   0.003050   0.008746  -0.000000   0.000000  -0.016058  -0.000000   0.000000   20.0000     0.0794
    7.200     0.000   0.144524   0.006021   0.003080   0.009101  -0.000000   0.000000  -0.016507  -0.000000  -0.000000   20.0000     0.0795
    7.400     0.000   0.148473   0.006356   0.003110   0.009466  -0.000000   0.000000  -0.016956  -0.000000  -0.000000   20.0000     0.0795
    7.600     0.000   0.152417   0.006699   0.003142   0.009841  -0.000000   0.000000  -0.017405  -0.000000   0.000000   20.0000     0.0795
    7.800     0.000   0.156354   0.007051   0.003174   0.010225  -0.000000   0.000000  -0.017852  -0.000000   0.000000   20.0000     0.0795
    8.000     0.000   0.160287   0.007411   0.003208   0.010619  -0.000000   0.000000  -0.018299  -0.000000  -0.000000   20.0000     0.0796
    8.200     0.000   0.164213   0.007780   0.003241   0.011021  -0.000000   0.000000  -0.018745  -0.000000  -0.000000   20.0000     0.0796
    8.400     0.000   0.168134   0.008157   0.003275   0.011432  -0.000000   0.000000  -0.019189  -0.000000   0.000000   20.0000     0.0796
    8.600     0.000   0.172048   0.008542   0.003309   0.011852  -0.000000   0.000000  -0.019633  -0.000000   0.000000   20.0000     0.0796
    8.800     0.000   0.175956   0.008936   0.003342   0.012278  -0.000000   0.000000  -0.020076  -0.000000  -0.000000   20.0000     0.0797
    9.000     0.000   0.179858   0.009339   0.003375   0.012714  -0.000000   0.000000  -0.020519  -0.000000   0.000000   20.0000     0.0797
    9.200     0.000   0.183754   0.009749   0.003411   0.013160  -0.000000   0.000000  -0.020960  -0.000000  -0.000000   20.0000     0.0797
    9.400     0.000   0.187643   0.010168   0.003445   0.013614  -0.000000   0.000000  -0.021400  -0.000000   0.000000   20.0000     0.0798
    9.600     0.000   0.191525   0.010595   0.003484   0.014079  -0.000000   0.000000  -0.021839  -0.000000  -0.000000   20.0000     0.0798
    9.800     0.000   0.195400   0.011030   0.003524   0.014554  -0.000000   0.000000  -0.022277  -0.000000  -0.000000   20.0000     0.0798
   10.000     0.000   0.199268   0.011473   0.003566   0.015039  -0.000000   0.000000  -0.022715  -0.000000  -0.000000   20.0000     0.0799
   10.200     0.000   0.203129   0.011925   0.003611   0.015535  -0.000000   0.000000  -0.023151  -0.000000  -0.000000   20.0000     0.0799
   10.400     0.000   0.206983   0.012384   0.003656   0.016040  -0.000000   0.000000  -0.023586  -0.000000  -0.000000   20.0000     0.0799
   10.600     0.000   0.210830   0.012851   0.003703   0.016554  -0.000000   0.000000  -0.024020  -0.000000   0.000000   20.0000     0.0800
   10.800     0.000   0.214669   0.013326   0.003752   0.017078  -0.000000   0.000000  -0.024454  -0.000000  -0.000000   20.0000     0.0800
   11.000     0.000   0.218500   0.013808   0.003802   0.017611  -0.000000   0.000000  -0.024885  -0.000000   0.000000   20.0000     0.0800
   11.200     0.000   0.222323   0.014299   0.003856   0.018155  -0.000000   0.000000  -0.025316  -0.000000  -0.000000   20.0000     0.0801
   11.400     0.000   0.226139   0.014797   0.003909   0.018706  -0.000000   0.000000  -0.025746  -0.000000  -0.000000   20.0000     0.0801
   11.600     0.000   0.229947   0.015303   0.003963   0.019266  -0.000000   0.000000  -0.026175  -0.000000   0.000000   20.0000     0.0801
   11.800     0.000   0.233746   0.015816   0.004022   0.019837  -0.000000   0.000000  -0.026602  -0.000000   0.000000   20.0000     0.0802
   12.000     0.000   0.237537   0.016337   0.004078   0.020415  -0.000000   0.000000  -0.027028  -0.000000  -0.000000   20.0000     0.0802
   12.200     0.000   0.241320   0.016865   0.004134   0.020999  -0.000000   0.000000  -0.027453  -0.000000  -0.000000   20.0000     0.0802
   12.400     0.000   0.245094   0.017400   0.004200   0.021601  -0.000000   0.000000  -0.027877  -0.000000  -0.000000   20.0000     0.0803
   12.600     0.000   0.248859   0.017943   0.004267   0.022210  -0.000000   0.000000  -0.028300  -0.000000  -0.000000   20.0000     0.0803
   12.800     0.000   0.252616   0.018493   0.004325   0.022818  -0.000000   0.000000  -0.028721  -0.000000  -0.000000   20.0000     0.0804
   13.000     0.000   0.256363   0.019050   0.004391   0.023441  -0.000000   0.000000  -0.029141  -0.000000   0.000000   20.0000     0.0804
   13.200     0.000   0.260102   0.019614   0.004450   0.024065  -0.000000   0.000000  -0.029559  -0.000000   0.000000   20.0000     0.0805
   13.400     0.000   0.263831   0.020186   0.004533   0.024718  -0.000000   0.000000  -0.029977  -0.000000   0.000000   20.0000     0.0805
   13.600     0.000   0.267551   0.020764   0.004617   0.025381  -0.000000   0.000000  -0.030393  -0.000000   0.000000   20.0000     0.0805
   13.800     0.000   0.271262   0.021349   0.004689   0.026038  -0.000000   0.000000  -0.030808  -0.000000   0.000000   20.0000     0.0806
   14.000     0.000   0.274963   0.021941   0.004764   0.026705  -0.000000   0.000000  -0.031221  -0.000000   0.000000   20.0000     0.0806
   14.200     0.000   0.278655   0.022540   0.004832   0.027371  -0.000000   0.000000  -0.031633  -0.000000  -0.000000   20.0000     0.0807
   14.400     0.000   0.282337   0.023145   0.004908   0.028053  -0.000000   0.000000  -0.032043  -0.000000  -0.000000   20.0000     0.0807
   14.600     0.000   0.286008   0.023757   0.004985   0.028742  -0.000000   0.000000  -0.032452  -0.000000  -0.000000   20.0000     0.0808
   14.800     0.000   0.289670   0.024375   0.005086   0.029461  -0.000000   0.000000  -0.032860  -0.000000   0.000000   20.0000     0.0808
   15.000     0.000   0.293322   0.025000   0.005183   0.030183  -0.000000   0.000000  -0.033267  -0.000000   0.000000   20.0000     0.0809
   15.200     0.000   0.296964   0.025631   0.005268   0.030899  -0.000000   0.000000  -0.033672  -0.000000   0.000000   20.0000     0.0809
   15.400     0.000   0.300595   0.026268   0.005366   0.031634  -0.000000   0.000000  -0.034075  -0.000000  -0.000000   20.0000     0.0810
   15.600     0.000   0.304215   0.026912   0.005461   0.032373  -0.000000   0.000000  -0.034477  -0.000000  -0.000000   20.0000     0.0810


