xflr5 v6.47

Plane name :        Custer1-dES03
Polar name :        T1-25.0 m/s-VLM2-15.0kg-x39.1mm
Freestream speed :  25.000 m/s


   alpha      Beta       CL          CDi        CDv        CD         CY         Cl         Cm         Cn        Cni       QInf        XCP
   -4.000     0.000  -0.125388   0.004576   0.015004   0.019580  -0.019190  -0.006537   0.239013   0.006224   0.006269   25.0000     0.7005
   -3.800     0.000  -0.104881   0.004257   0.014903   0.019160  -0.018916  -0.006481   0.225165   0.006158   0.006201   25.0000     0.7835
   -3.600     0.000  -0.084369   0.003973   0.014766   0.018739  -0.018641  -0.006425   0.211303   0.006091   0.006132   25.0000     0.9069
   -3.400     0.000  -0.063853   0.003723   0.014626   0.018349  -0.018366  -0.006369   0.197427   0.006024   0.006064   25.0000     1.1096
   -3.200     0.000  -0.043331   0.003509   0.014543   0.018051  -0.018090  -0.006314   0.183541   0.005956   0.005995   25.0000     1.5044
   -3.000     0.000  -0.022806   0.003329   0.014441   0.017770  -0.017814  -0.006260   0.169642   0.005888   0.005925   25.0000     2.6100
   -2.800     0.000  -0.002277   0.003183   0.014327   0.017510  -0.017537  -0.006206   0.155733   0.005820   0.005856   25.0000    23.6508
   -2.600     0.000   0.018254   0.003073   0.014242   0.017315  -0.017260  -0.006152   0.141814   0.005751   0.005786   25.0000    -2.6402
   -2.400     0.000   0.038787   0.002997   0.014133   0.017130  -0.016982  -0.006098   0.127885   0.005682   0.005715   25.0000    -1.0965
   -2.200     0.000   0.059322   0.002956   0.014066   0.017022  -0.016703  -0.006045   0.113947   0.005613   0.005645   25.0000    -0.6214
   -2.000     0.000   0.079857   0.002950   0.013981   0.016931  -0.016425  -0.005993   0.100001   0.005544   0.005574   25.0000    -0.3906
   -1.800     0.000   0.100393   0.002979   0.013898   0.016877  -0.016145  -0.005941   0.086047   0.005474   0.005503   25.0000    -0.2543
   -1.600     0.000   0.120928   0.003042   0.013829   0.016872  -0.015865  -0.005889   0.072086   0.005404   0.005431   25.0000    -0.1642
   -1.400     0.000   0.141462   0.003141   0.013769   0.016910  -0.015585  -0.005837   0.058119   0.005334   0.005359   25.0000    -0.1003
   -1.200     0.000   0.161994   0.003274   0.013697   0.016971  -0.015305  -0.005787   0.044146   0.005263   0.005287   25.0000    -0.0526
   -1.000     0.000   0.182524   0.003443   0.013638   0.017081  -0.015024  -0.005736   0.030169   0.005192   0.005215   25.0000    -0.0157
   -0.800     0.000   0.203051   0.003646   0.013588   0.017234  -0.014742  -0.005686   0.016186   0.005121   0.005142   25.0000     0.0138
   -0.600     0.000   0.223575   0.003884   0.013536   0.017419  -0.014460  -0.005637   0.002201   0.005050   0.005069   25.0000     0.0379
   -0.400     0.000   0.244094   0.004156   0.013481   0.017637  -0.014178  -0.005587  -0.011788   0.004978   0.004996   25.0000     0.0580
   -0.200     0.000   0.264609   0.004464   0.013439   0.017903  -0.013895  -0.005539  -0.025780   0.004907   0.004923   25.0000     0.0749
    0.000     0.000   0.285118   0.004806   0.013403   0.018209  -0.013612  -0.005490  -0.039773   0.004834   0.004849   25.0000     0.0894
    0.200     0.000   0.305622   0.005184   0.013354   0.018537  -0.013329  -0.005443  -0.053767   0.004762   0.004775   25.0000     0.1019
    0.400     0.000   0.326118   0.005595   0.013307   0.018903  -0.013046  -0.005395  -0.067762   0.004689   0.004701   25.0000     0.1129
    0.600     0.000   0.346608   0.006042   0.013270   0.019312  -0.012762  -0.005348  -0.081756   0.004617   0.004627   25.0000     0.1226
    0.800     0.000   0.367090   0.006523   0.013214   0.019737  -0.012478  -0.005302  -0.095750   0.004544   0.004552   25.0000     0.1312
    1.000     0.000   0.387563   0.007039   0.013128   0.020167  -0.012193  -0.005256  -0.109742   0.004470   0.004477   25.0000     0.1389
    1.200     0.000   0.408027   0.007589   0.013027   0.020617  -0.011908  -0.005210  -0.123732   0.004396   0.004402   25.0000     0.1458
    1.400     0.000   0.428482   0.008174   0.012930   0.021104  -0.011623  -0.005165  -0.137720   0.004323   0.004327   25.0000     0.1520
    1.600     0.000   0.448926   0.008794   0.012827   0.021621  -0.011338  -0.005121  -0.151703   0.004249   0.004252   25.0000     0.1577
    1.800     0.000   0.469359   0.009447   0.012726   0.022174  -0.011053  -0.005077  -0.165683   0.004175   0.004176   25.0000     0.1629
    2.000     0.000   0.489781   0.010135   0.012646   0.022781  -0.010767  -0.005033  -0.179658   0.004100   0.004100   25.0000     0.1677
    2.200     0.000   0.510191   0.010858   0.012578   0.023436  -0.010481  -0.004990  -0.193628   0.004026   0.004024   25.0000     0.1721
    2.400     0.000   0.530588   0.011614   0.012518   0.024132  -0.010195  -0.004947  -0.207592   0.003951   0.003948   25.0000     0.1761
    2.600     0.000   0.550972   0.012404   0.012489   0.024894  -0.009909  -0.004905  -0.221550   0.003876   0.003872   25.0000     0.1799
    2.800     0.000   0.571342   0.013229   0.012492   0.025721  -0.009623  -0.004863  -0.235500   0.003801   0.003795   25.0000     0.1834
    3.000     0.000   0.591697   0.014087   0.012516   0.026603  -0.009336  -0.004822  -0.249443   0.003726   0.003719   25.0000     0.1866
    3.200     0.000   0.612037   0.014980   0.012551   0.027531  -0.009050  -0.004781  -0.263378   0.003651   0.003642   25.0000     0.1897
    3.400     0.000   0.632362   0.015906   0.012587   0.028492  -0.008763  -0.004740  -0.277303   0.003575   0.003565   25.0000     0.1925
    3.600     0.000   0.652670   0.016865   0.012624   0.029490  -0.008476  -0.004701  -0.291218   0.003500   0.003488   25.0000     0.1952
    3.800     0.000   0.672961   0.017858   0.012662   0.030520  -0.008189  -0.004661  -0.305124   0.003424   0.003411   25.0000     0.1977
    4.000     0.000   0.693234   0.018885   0.012703   0.031588  -0.007903  -0.004622  -0.319018   0.003348   0.003334   25.0000     0.2000
    4.200     0.000   0.713490   0.019945   0.012756   0.032700  -0.007616  -0.004584  -0.332900   0.003271   0.003256   25.0000     0.2023
    4.400     0.000   0.733727   0.021038   0.012828   0.033866  -0.007328  -0.004546  -0.346771   0.003195   0.003179   25.0000     0.2044
    4.600     0.000   0.753944   0.022164   0.012911   0.035075  -0.007041  -0.004508  -0.360629   0.003119   0.003101   25.0000     0.2064
    4.800     0.000   0.774141   0.023323   0.012986   0.036309  -0.006754  -0.004471  -0.374473   0.003042   0.003024   25.0000     0.2083
    5.000     0.000   0.794318   0.024515   0.013057   0.037572  -0.006467  -0.004435  -0.388303   0.002965   0.002946   25.0000     0.2101
    5.200     0.000   0.814474   0.025739   0.013132   0.038871  -0.006180  -0.004399  -0.402117   0.002888   0.002868   25.0000     0.2118
    5.400     0.000   0.834608   0.026996   0.013217   0.040213  -0.005893  -0.004364  -0.415917   0.002811   0.002790   25.0000     0.2135
    5.600     0.000   0.854720   0.028286   0.013316   0.041602  -0.005606  -0.004329  -0.429701   0.002734   0.002712   25.0000     0.2150
    5.800     0.000   0.874809   0.029608   0.013423   0.043030  -0.005319  -0.004294  -0.443468   0.002657   0.002634   25.0000     0.2165
    6.000     0.000   0.894874   0.030962   0.013520   0.044482  -0.005033  -0.004260  -0.457217   0.002580   0.002556   25.0000     0.2180
    6.200     0.000   0.914916   0.032347   0.013611   0.045958  -0.004746  -0.004226  -0.470948   0.002502   0.002478   25.0000     0.2193
    6.400     0.000   0.934933   0.033765   0.013701   0.047466  -0.004459  -0.004193  -0.484661   0.002425   0.002400   25.0000     0.2207
    6.600     0.000   0.954924   0.035214   0.013799   0.049013  -0.004173  -0.004161  -0.498354   0.002347   0.002322   25.0000     0.2219
    6.800     0.000   0.974890   0.036695   0.013907   0.050602  -0.003886  -0.004129  -0.512027   0.002270   0.002244   25.0000     0.2231
    7.000     0.000   0.994829   0.038207   0.014032   0.052239  -0.003600  -0.004097  -0.525680   0.002192   0.002166   25.0000     0.2243
    7.200     0.000   1.014742   0.039750   0.014151   0.053901  -0.003314  -0.004066  -0.539311   0.002114   0.002087   25.0000     0.2254
    7.400     0.000   1.034627   0.041325   0.014258   0.055582  -0.003028  -0.004036  -0.552920   0.002036   0.002009   25.0000     0.2265
    7.600     0.000   1.054484   0.042929   0.014363   0.057292  -0.002742  -0.004006  -0.566507   0.001958   0.001931   25.0000     0.2276
    7.800     0.000   1.074312   0.044565   0.014474   0.059039  -0.002457  -0.003976  -0.580071   0.001880   0.001853   25.0000     0.2286
    8.000     0.000   1.094111   0.046231   0.014598   0.060829  -0.002171  -0.003947  -0.593611   0.001802   0.001775   25.0000     0.2296
    8.200     0.000   1.113880   0.047927   0.014741   0.062668  -0.001886  -0.003918  -0.607128   0.001724   0.001696   25.0000     0.2305
    8.400     0.000   1.133619   0.049653   0.014873   0.064527  -0.001601  -0.003890  -0.620619   0.001647   0.001618   25.0000     0.2315
    8.600     0.000   1.153327   0.051410   0.014992   0.066402  -0.001317  -0.003863  -0.634084   0.001569   0.001540   25.0000     0.2324
    8.800     0.000   1.173003   0.053195   0.015116   0.068311  -0.001032  -0.003836  -0.647523   0.001491   0.001462   25.0000     0.2332
    9.000     0.000   1.192647   0.055010   0.015255   0.070265  -0.000748  -0.003809  -0.660935   0.001413   0.001384   25.0000     0.2341
    9.200     0.000   1.212259   0.056855   0.015412   0.072267  -0.000464  -0.003783  -0.674321   0.001335   0.001306   25.0000     0.2349
    9.400     0.000   1.231838   0.058728   0.015557   0.074285  -0.000181  -0.003757  -0.687678   0.001257   0.001228   25.0000     0.2357
    9.600     0.000   1.251383   0.060630   0.015702   0.076333   0.000102  -0.003732  -0.701007   0.001179   0.001150   25.0000     0.2364
    9.800     0.000   1.270894   0.062561   0.015869   0.078430   0.000385  -0.003708  -0.714308   0.001102   0.001073   25.0000     0.2372
   10.000     0.000   1.290370   0.064520   0.016050   0.080570   0.000668  -0.003684  -0.727578   0.001024   0.000995   25.0000     0.2379
   10.200     0.000   1.309811   0.066507   0.016221   0.082727   0.000950  -0.003660  -0.740817   0.000947   0.000917   25.0000     0.2387
   10.400     0.000   1.329216   0.068522   0.016417   0.084939   0.001231  -0.003637  -0.754024   0.000869   0.000840   25.0000     0.2394
   10.600     0.000   1.348584   0.070564   0.016629   0.087193   0.001513  -0.003614  -0.767199   0.000792   0.000762   25.0000     0.2400
   10.800     0.000   1.367916   0.072635   0.016846   0.089481   0.001794  -0.003592  -0.780341   0.000714   0.000685   25.0000     0.2407
   11.000     0.000   1.387210   0.074732   0.017105   0.091837   0.002074  -0.003570  -0.793451   0.000637   0.000608   25.0000     0.2414
   11.200     0.000   1.406466   0.076856   0.017364   0.094220   0.002354  -0.003549  -0.806526   0.000559   0.000531   25.0000     0.2420
   11.400     0.000   1.425684   0.079007   0.017671   0.096677   0.002634  -0.003528  -0.819567   0.000482   0.000454   25.0000     0.2426
   11.600     0.000   1.444862   0.081184   0.018011   0.099195   0.002913  -0.003508  -0.832575   0.000406   0.000377   25.0000     0.2432
   11.800     0.000   1.464002   0.083387   0.018397   0.101784   0.003192  -0.003489  -0.845547   0.000329   0.000301   25.0000     0.2438
   12.000     0.000   1.483101   0.085617   0.018853   0.104469   0.003470  -0.003469  -0.858485   0.000252   0.000224   25.0000     0.2444
   12.200     0.000   1.502159   0.087872   0.019386   0.107258   0.003748  -0.003450  -0.871388   0.000176   0.000148   25.0000     0.2450
   12.400     0.000   1.521177   0.090152   0.020030   0.110182   0.004025  -0.003432  -0.884257   0.000100   0.000072   25.0000     0.2456
   12.600     0.000   1.540152   0.092457   0.020919   0.113377   0.004302  -0.003414  -0.897094   0.000024  -0.000004   25.0000     0.2461
   12.800     0.000   1.559086   0.094788   0.022166   0.116954   0.004578  -0.003397  -0.909905  -0.000051  -0.000080   25.0000     0.2467
   13.000     0.000   1.577977   0.097143   0.023982   0.121125   0.004853  -0.003380  -0.922693  -0.000125  -0.000156   25.0000     0.2472


