xflr5 v6.47

Plane name :        Custer1-dE03
Polar name :        T1-25.0 m/s-VLM2-15.0kg-x39.1mm
Freestream speed :  25.000 m/s


   alpha      Beta       CL          CDi        CDv        CD         CY         Cl         Cm         Cn        Cni       QInf        XCP
   -4.000     0.000  -0.039412   0.000224   0.014464   0.014688  -0.000000   0.000000  -0.019541   0.000000   0.000000   25.0000    -0.1573
   -3.800     0.000  -0.019059   0.000162   0.014379   0.014541  -0.000000   0.000000  -0.032893   0.000000   0.000000   25.0000    -0.6113
   -3.600     0.000   0.001297   0.000133   0.014241   0.014374  -0.000000   0.000000  -0.046253   0.000000   0.000000   25.0000    13.1932
   -3.400     0.000   0.021654   0.000136   0.014148   0.014284  -0.000000   0.000000  -0.059620   0.000000   0.000000   25.0000     1.0418
   -3.200     0.000   0.042014   0.000171   0.014093   0.014264  -0.000000   0.000000  -0.072992   0.000000   0.000000   25.0000     0.6667
   -3.000     0.000   0.062374   0.000240   0.013987   0.014227  -0.000000   0.000000  -0.086370   0.000000   0.000000   25.0000     0.5365
   -2.800     0.000   0.082734   0.000340   0.013912   0.014252  -0.000000   0.000000  -0.099752   0.000000   0.000000   25.0000     0.4704
   -2.600     0.000   0.103095   0.000473   0.013835   0.014308  -0.000000   0.000000  -0.113139   0.000000   0.000000   25.0000     0.4304
   -2.400     0.000   0.123454   0.000639   0.013761   0.014400  -0.000000   0.000000  -0.126529   0.000000   0.000000   25.0000     0.4036
   -2.200     0.000   0.143812   0.000837   0.013718   0.014555   0.000000   0.000000  -0.139921   0.000000  -0.000000   25.0000     0.3843
   -2.000     0.000   0.164169   0.001068   0.013645   0.014713   0.000000   0.000000  -0.153317  -0.000000  -0.000000   25.0000     0.3699
   -1.800     0.000   0.184522   0.001331   0.013596   0.014927   0.000000   0.000000  -0.166714  -0.000000  -0.000000   25.0000     0.3586
   -1.600     0.000   0.204872   0.001626   0.013550   0.015176   0.000000   0.000000  -0.180111  -0.000000  -0.000000   25.0000     0.3496
   -1.400     0.000   0.225219   0.001955   0.013510   0.015465   0.000000   0.000000  -0.193509  -0.000000  -0.000000   25.0000     0.3422
   -1.200     0.000   0.245561   0.002315   0.013461   0.015776   0.000000   0.000000  -0.206907  -0.000000  -0.000000   25.0000     0.3360
   -1.000     0.000   0.265898   0.002708   0.013431   0.016139   0.000000   0.000000  -0.220305  -0.000000  -0.000000   25.0000     0.3308
   -0.800     0.000   0.286230   0.003134   0.013406   0.016540   0.000000   0.000000  -0.233700  -0.000000  -0.000000   25.0000     0.3263
   -0.600     0.000   0.306556   0.003591   0.013372   0.016963   0.000000   0.000000  -0.247094  -0.000000  -0.000000   25.0000     0.3224
   -0.400     0.000   0.326875   0.004082   0.013346   0.017428   0.000000   0.000000  -0.260485  -0.000000  -0.000000   25.0000     0.3190
   -0.200     0.000   0.347186   0.004604   0.013332   0.017937   0.000000   0.000000  -0.273873  -0.000000  -0.000000   25.0000     0.3161
    0.000     0.000   0.367490   0.005159   0.013311   0.018470   0.000000   0.000000  -0.287257  -0.000000  -0.000000   25.0000     0.3134
    0.200     0.000   0.387786   0.005746   0.013286   0.019032   0.000000   0.000000  -0.300636  -0.000000  -0.000000   25.0000     0.3110
    0.400     0.000   0.408072   0.006365   0.013265   0.019630   0.000000   0.000000  -0.314011  -0.000000  -0.000000   25.0000     0.3089
    0.600     0.000   0.428348   0.007016   0.013245   0.020261   0.000000   0.000000  -0.327380  -0.000000  -0.000000   25.0000     0.3069
    0.800     0.000   0.448615   0.007700   0.013199   0.020899   0.000000   0.000000  -0.340742  -0.000000  -0.000000   25.0000     0.3052
    1.000     0.000   0.468870   0.008415   0.013125   0.021540   0.000000   0.000000  -0.354097  -0.000000  -0.000000   25.0000     0.3036
    1.200     0.000   0.489115   0.009162   0.013046   0.022208   0.000000   0.000000  -0.367445  -0.000000  -0.000000   25.0000     0.3021
    1.400     0.000   0.509347   0.009941   0.012970   0.022911   0.000000   0.000000  -0.380784  -0.000000  -0.000000   25.0000     0.3008
    1.600     0.000   0.529567   0.010752   0.012887   0.023639   0.000000   0.000000  -0.394115  -0.000000  -0.000000   25.0000     0.2995
    1.800     0.000   0.549773   0.011595   0.012814   0.024409   0.000000   0.000000  -0.407436  -0.000000  -0.000000   25.0000     0.2984
    2.000     0.000   0.569966   0.012469   0.012763   0.025232   0.000000   0.000000  -0.420747  -0.000000  -0.000000   25.0000     0.2973
    2.200     0.000   0.590145   0.013375   0.012715   0.026090   0.000000   0.000000  -0.434047  -0.000000  -0.000000   25.0000     0.2964
    2.400     0.000   0.610308   0.014312   0.012687   0.026999   0.000000   0.000000  -0.447336  -0.000000  -0.000000   25.0000     0.2955
    2.600     0.000   0.630457   0.015281   0.012692   0.027973   0.000000   0.000000  -0.460613  -0.000000  -0.000000   25.0000     0.2946
    2.800     0.000   0.650589   0.016281   0.012722   0.029002   0.000000   0.000000  -0.473878  -0.000000  -0.000000   25.0000     0.2938
    3.000     0.000   0.670705   0.017312   0.012771   0.030083   0.000000   0.000000  -0.487130  -0.000000  -0.000000   25.0000     0.2931
    3.200     0.000   0.690803   0.018374   0.012824   0.031198   0.000000   0.000000  -0.500368  -0.000000  -0.000000   25.0000     0.2924
    3.400     0.000   0.710884   0.019467   0.012880   0.032346   0.000000   0.000000  -0.513592  -0.000000  -0.000000   25.0000     0.2917
    3.600     0.000   0.730947   0.020590   0.012933   0.033523   0.000000   0.000000  -0.526800  -0.000000  -0.000000   25.0000     0.2911
    3.800     0.000   0.750990   0.021745   0.012987   0.034732   0.000000   0.000000  -0.539993  -0.000000  -0.000000   25.0000     0.2905
    4.000     0.000   0.771014   0.022930   0.013047   0.035977   0.000000   0.000000  -0.553170  -0.000000  -0.000000   25.0000     0.2900
    4.200     0.000   0.791019   0.024146   0.013122   0.037267   0.000000   0.000000  -0.566330  -0.000000  -0.000000   25.0000     0.2895
    4.400     0.000   0.811002   0.025392   0.013217   0.038608   0.000000   0.000000  -0.579473  -0.000000  -0.000000   25.0000     0.2890
    4.600     0.000   0.830965   0.026668   0.013309   0.039977   0.000000   0.000000  -0.592597  -0.000000  -0.000000   25.0000     0.2885
    4.800     0.000   0.850906   0.027974   0.013393   0.041367   0.000000   0.000000  -0.605702  -0.000000  -0.000000   25.0000     0.2881
    5.000     0.000   0.870824   0.029310   0.013474   0.042784   0.000000   0.000000  -0.618788  -0.000000  -0.000000   25.0000     0.2877
    5.200     0.000   0.890720   0.030676   0.013563   0.044239   0.000000   0.000000  -0.631854  -0.000000  -0.000000   25.0000     0.2873
    5.400     0.000   0.910592   0.032072   0.013663   0.045735   0.000000   0.000000  -0.644899  -0.000000  -0.000000   25.0000     0.2869
    5.600     0.000   0.930441   0.033497   0.013779   0.047276   0.000000   0.000000  -0.657923  -0.000000  -0.000000   25.0000     0.2866
    5.800     0.000   0.950265   0.034951   0.013894   0.048845   0.000000   0.000000  -0.670926  -0.000000  -0.000000   25.0000     0.2863
    6.000     0.000   0.970063   0.036435   0.013997   0.050431   0.000000   0.000000  -0.683906  -0.000000  -0.000000   25.0000     0.2860
    6.200     0.000   0.989837   0.037947   0.014096   0.052044   0.000000   0.000000  -0.696863  -0.000000  -0.000000   25.0000     0.2857
    6.400     0.000   1.009584   0.039489   0.014201   0.053690   0.000000   0.000000  -0.709797  -0.000000  -0.000000   25.0000     0.2854
    6.600     0.000   1.029304   0.041059   0.014311   0.055370   0.000000   0.000000  -0.722706  -0.000000  -0.000000   25.0000     0.2851
    6.800     0.000   1.048998   0.042658   0.014435   0.057092   0.000000   0.000000  -0.735590  -0.000000  -0.000000   25.0000     0.2849
    7.000     0.000   1.068663   0.044285   0.014569   0.058854   0.000000   0.000000  -0.748449  -0.000000  -0.000000   25.0000     0.2847
    7.200     0.000   1.088300   0.045940   0.014693   0.060633   0.000000   0.000000  -0.761283  -0.000000  -0.000000   25.0000     0.2844
    7.400     0.000   1.107909   0.047624   0.014808   0.062432   0.000000   0.000000  -0.774090  -0.000000  -0.000000   25.0000     0.2842
    7.600     0.000   1.127488   0.049335   0.014928   0.064263   0.000000   0.000000  -0.786871  -0.000000  -0.000000   25.0000     0.2840
    7.800     0.000   1.147037   0.051073   0.015056   0.066129   0.000000   0.000000  -0.799624  -0.000000  -0.000000   25.0000     0.2838
    8.000     0.000   1.166555   0.052839   0.015200   0.068040   0.000000   0.000000  -0.812349  -0.000000  -0.000000   25.0000     0.2837
    8.200     0.000   1.186043   0.054633   0.015349   0.069982   0.000000   0.000000  -0.825044  -0.000000  -0.000000   25.0000     0.2835
    8.400     0.000   1.205499   0.056453   0.015480   0.071933   0.000000   0.000000  -0.837707  -0.000000  -0.000000   25.0000     0.2833
    8.600     0.000   1.224923   0.058300   0.015603   0.073903   0.000000   0.000000  -0.850339  -0.000000  -0.000000   25.0000     0.2832
    8.800     0.000   1.244314   0.060174   0.015735   0.075909   0.000000   0.000000  -0.862941  -0.000000  -0.000000   25.0000     0.2830
    9.000     0.000   1.263673   0.062074   0.015884   0.077958   0.000000   0.000000  -0.875510  -0.000000  -0.000000   25.0000     0.2829
    9.200     0.000   1.282998   0.064001   0.016038   0.080038   0.000000   0.000000  -0.888047  -0.000000  -0.000000   25.0000     0.2828
    9.400     0.000   1.302288   0.065953   0.016178   0.082131   0.000000   0.000000  -0.900552  -0.000000  -0.000000   25.0000     0.2827
    9.600     0.000   1.321544   0.067931   0.016327   0.084259   0.000000   0.000000  -0.913022  -0.000000  -0.000000   25.0000     0.2826
    9.800     0.000   1.340765   0.069935   0.016503   0.086438   0.000000   0.000000  -0.925460  -0.000000  -0.000000   25.0000     0.2825
   10.000     0.000   1.359950   0.071964   0.016674   0.088638   0.000000   0.000000  -0.937862  -0.000000  -0.000000   25.0000     0.2824
   10.200     0.000   1.379099   0.074018   0.016848   0.090866   0.000000   0.000000  -0.950230  -0.000000  -0.000000   25.0000     0.2823
   10.400     0.000   1.398212   0.076097   0.017057   0.093154   0.000000   0.000000  -0.962561  -0.000000  -0.000000   25.0000     0.2822
   10.600     0.000   1.417287   0.078201   0.017263   0.095463   0.000000   0.000000  -0.974857  -0.000000  -0.000000   25.0000     0.2821
   10.800     0.000   1.436325   0.080329   0.017502   0.097831   0.000000   0.000000  -0.987117  -0.000000  -0.000000   25.0000     0.2820
   11.000     0.000   1.455324   0.082481   0.017756   0.100236   0.000000   0.000000  -0.999338  -0.000000  -0.000000   25.0000     0.2820
   11.200     0.000   1.474285   0.084657   0.018036   0.102693   0.000000   0.000000  -1.011523  -0.000000  -0.000000   25.0000     0.2819
   11.400     0.000   1.493206   0.086856   0.018346   0.105202   0.000000   0.000000  -1.023670  -0.000000  -0.000000   25.0000     0.2819
   11.600     0.000   1.512088   0.089080   0.018712   0.107791   0.000000   0.000000  -1.035778  -0.000000  -0.000000   25.0000     0.2818
   11.800     0.000   1.530930   0.091326   0.019136   0.110461   0.000000   0.000000  -1.047849  -0.000000  -0.000000   25.0000     0.2818
   12.000     0.000   1.549731   0.093595   0.019614   0.113208   0.000000   0.000000  -1.059882  -0.000000  -0.000000   25.0000     0.2817
   12.200     0.000   1.568491   0.095887   0.020185   0.116072   0.000000   0.000000  -1.071876  -0.000000  -0.000000   25.0000     0.2817
   12.400     0.000   1.587210   0.098201   0.020916   0.119117   0.000000   0.000000  -1.083835  -0.000000  -0.000000   25.0000     0.2817
   12.600     0.000   1.605886   0.100537   0.021940   0.122477   0.000000   0.000000  -1.095763  -0.000000  -0.000000   25.0000     0.2816
   12.800     0.000   1.624521   0.102895   0.023351   0.126246   0.000000   0.000000  -1.107660  -0.000000  -0.000000   25.0000     0.2816
   13.000     0.000   1.643112   0.105275   0.025734   0.131009   0.000000   0.000000  -1.119545  -0.000000  -0.000000   25.0000     0.2816


