xflr5 v6.38

Plane name :        Decode1_Wing_modif-dES0
Polar name :        T1-30.0 m/s-VLM2-15.0kg-x39.1mm-proj_area
Freestream speed :  30.000 m/s


   alpha      Beta       CL          CDi        CDv        CD         CY         Cl         Cm         Cn        Cni       QInf        XCP
   -4.000     0.000  -0.168168   0.005250   0.004717   0.009967  -0.000000  -0.000000   0.428785   0.000000   0.000000   30.0000     0.9937
   -3.800     0.000  -0.163306   0.004950   0.004677   0.009627  -0.000000  -0.000000   0.416421   0.000000   0.000000   30.0000     0.9935
   -3.600     0.000  -0.158440   0.004659   0.004638   0.009297  -0.000000  -0.000000   0.404042   0.000000   0.000000   30.0000     0.9934
   -3.400     0.000  -0.153570   0.004377   0.004599   0.008975  -0.000000  -0.000000   0.391648   0.000000   0.000000   30.0000     0.9933
   -3.200     0.000  -0.148695   0.004103   0.004560   0.008663  -0.000000  -0.000000   0.379239   0.000000   0.000000   30.0000     0.9932
   -3.000     0.000  -0.143816   0.003838   0.004524   0.008362  -0.000000  -0.000000   0.366818   0.000000   0.000000   30.0000     0.9931
   -2.800     0.000  -0.138932   0.003582   0.004487   0.008069  -0.000000  -0.000000   0.354383   0.000000   0.000000   30.0000     0.9930
   -2.600     0.000  -0.134045   0.003334   0.004453   0.007787  -0.000000  -0.000000   0.341937   0.000000   0.000000   30.0000     0.9929
   -2.400     0.000  -0.129155   0.003095   0.004419   0.007513  -0.000000  -0.000000   0.329478   0.000000   0.000000   30.0000     0.9928
   -2.200     0.000  -0.124260   0.002865   0.004384   0.007248  -0.000000  -0.000000   0.317008   0.000000   0.000000   30.0000     0.9928
   -2.000     0.000  -0.119362   0.002643   0.004348   0.006991  -0.000000  -0.000000   0.304527   0.000000   0.000000   30.0000     0.9927
   -1.800     0.000  -0.114461   0.002431   0.004311   0.006741  -0.000000  -0.000000   0.292036   0.000000   0.000000   30.0000     0.9927
   -1.600     0.000  -0.109557   0.002227   0.004276   0.006503  -0.000000  -0.000000   0.279536   0.000000   0.000000   30.0000     0.9926
   -1.400     0.000  -0.104650   0.002032   0.004243   0.006275  -0.000000  -0.000000   0.267027   0.000000   0.000000   30.0000     0.9926
   -1.200     0.000  -0.099740   0.001846   0.004210   0.006056  -0.000000  -0.000000   0.254510   0.000000   0.000000   30.0000     0.9926
   -1.000     0.000  -0.094827   0.001669   0.004177   0.005846  -0.000000  -0.000000   0.241985   0.000000   0.000000   30.0000     0.9926
   -0.800     0.000  -0.089912   0.001500   0.004144   0.005645  -0.000000  -0.000000   0.229453   0.000000   0.000000   30.0000     0.9927
   -0.600     0.000  -0.084994   0.001341   0.004110   0.005451  -0.000000  -0.000000   0.216915   0.000000   0.000000   30.0000     0.9927
   -0.400     0.000  -0.080074   0.001191   0.004075   0.005266  -0.000000  -0.000000   0.204370   0.000000   0.000000   30.0000     0.9928
   -0.200     0.000  -0.075152   0.001049   0.004040   0.005089  -0.000000  -0.000000   0.191821   0.000000   0.000000   30.0000     0.9929
    0.000     0.000  -0.070229   0.000917   0.004006   0.004923  -0.000000  -0.000000   0.179267   0.000000   0.000000   30.0000     0.9930
    0.200     0.000  -0.065303   0.000793   0.003970   0.004763  -0.000000  -0.000000   0.166709   0.000000   0.000000   30.0000     0.9931
    0.400     0.000  -0.060376   0.000679   0.003936   0.004615  -0.000000  -0.000000   0.154147   0.000000   0.000000   30.0000     0.9933
    0.600     0.000  -0.055447   0.000573   0.003904   0.004478  -0.000000  -0.000000   0.141583   0.000000   0.000000   30.0000     0.9936
    0.800     0.000  -0.050518   0.000477   0.003874   0.004350  -0.000000  -0.000000   0.129017   0.000000   0.000000   30.0000     0.9939
    1.000     0.000  -0.045587   0.000389   0.003846   0.004235  -0.000000  -0.000000   0.116449   0.000000   0.000000   30.0000     0.9942
    1.200     0.000  -0.040655   0.000311   0.003817   0.004128  -0.000000  -0.000000   0.103880   0.000000   0.000000   30.0000     0.9947
    1.400     0.000  -0.035722   0.000241   0.003792   0.004033  -0.000000  -0.000000   0.091310   0.000000   0.000000   30.0000     0.9953
    1.600     0.000  -0.030788   0.000181   0.003770   0.003951  -0.000000  -0.000000   0.078740   0.000000   0.000000   30.0000     0.9961
    1.800     0.000  -0.025854   0.000130   0.003751   0.003881  -0.000000  -0.000000   0.066171   0.000000   0.000000   30.0000     0.9972
    2.000     0.000  -0.020920   0.000087   0.003734   0.003821  -0.000000  -0.000000   0.053603   0.000000   0.000000   30.0000     0.9989
    2.200     0.000  -0.015986   0.000054   0.003720   0.003774  -0.000000  -0.000000   0.041036   0.000000   0.000000   30.0000     1.0015
    2.400     0.000  -0.011051   0.000029   0.003711   0.003740  -0.000000  -0.000000   0.028471   0.000000   0.000000   30.0000     1.0065
    2.600     0.000  -0.006117   0.000014   0.003703   0.003717  -0.000000  -0.000000   0.015909   0.000000   0.000000   30.0000     1.0196
    2.800     0.000  -0.001182   0.000008   0.003701   0.003709  -0.000000   0.000000   0.003350   0.000000   0.000000   30.0000     1.1417
    3.000     0.000   0.003751   0.000011   0.003700   0.003710   0.000000   0.000000  -0.009205  -0.000000  -0.000000   30.0000     0.9428
    3.200     0.000   0.008685   0.000022   0.003704   0.003727   0.000000   0.000000  -0.021757  -0.000000  -0.000000   30.0000     0.9699
    3.400     0.000   0.013617   0.000043   0.003711   0.003754   0.000000   0.000000  -0.034304  -0.000000  -0.000000   30.0000     0.9775
    3.600     0.000   0.018549   0.000073   0.003722   0.003795   0.000000   0.000000  -0.046845  -0.000000  -0.000000   30.0000     0.9810
    3.800     0.000   0.023479   0.000112   0.003735   0.003847   0.000000   0.000000  -0.059381  -0.000000  -0.000000   30.0000     0.9831
    4.000     0.000   0.028409   0.000160   0.003753   0.003913   0.000000   0.000000  -0.071911  -0.000000  -0.000000   30.0000     0.9845
    4.200     0.000   0.033337   0.000216   0.003772   0.003988   0.000000   0.000000  -0.084434  -0.000000  -0.000000   30.0000     0.9855
    4.400     0.000   0.038263   0.000282   0.003796   0.004078   0.000000   0.000000  -0.096949  -0.000000  -0.000000   30.0000     0.9863
    4.600     0.000   0.043188   0.000357   0.003820   0.004176   0.000000   0.000000  -0.109457  -0.000000  -0.000000   30.0000     0.9869
    4.800     0.000   0.048111   0.000440   0.003847   0.004288   0.000000   0.000000  -0.121956  -0.000000  -0.000000   30.0000     0.9875
    5.000     0.000   0.053033   0.000533   0.003876   0.004408   0.000000   0.000000  -0.134445  -0.000000  -0.000000   30.0000     0.9879
    5.200     0.000   0.057952   0.000634   0.003905   0.004539   0.000000   0.000000  -0.146925  -0.000000  -0.000000   30.0000     0.9883
    5.400     0.000   0.062868   0.000745   0.003938   0.004682   0.000000   0.000000  -0.159395  -0.000000  -0.000000   30.0000     0.9887
    5.600     0.000   0.067783   0.000864   0.003967   0.004831   0.000000   0.000000  -0.171853  -0.000000  -0.000000   30.0000     0.9890
    5.800     0.000   0.072695   0.000992   0.004000   0.004991   0.000000   0.000000  -0.184299  -0.000000  -0.000000   30.0000     0.9893
    6.000     0.000   0.077604   0.001129   0.004030   0.005159   0.000000   0.000000  -0.196732  -0.000000  -0.000000   30.0000     0.9896
    6.200     0.000   0.082510   0.001274   0.004065   0.005340   0.000000   0.000000  -0.209154  -0.000000  -0.000000   30.0000     0.9899
    6.400     0.000   0.087413   0.001429   0.004098   0.005526   0.000000   0.000000  -0.221561  -0.000000  -0.000000   30.0000     0.9902
    6.600     0.000   0.092313   0.001592   0.004130   0.005723   0.000000   0.000000  -0.233954  -0.000000  -0.000000   30.0000     0.9905
    6.800     0.000   0.097210   0.001764   0.004160   0.005924   0.000000   0.000000  -0.246331  -0.000000  -0.000000   30.0000     0.9907
    7.000     0.000   0.102103   0.001945   0.004193   0.006137   0.000000   0.000000  -0.258693  -0.000000  -0.000000   30.0000     0.9910
    7.200     0.000   0.106993   0.002134   0.004223   0.006357   0.000000   0.000000  -0.271038  -0.000000  -0.000000   30.0000     0.9913
    7.400     0.000   0.111878   0.002332   0.004256   0.006588   0.000000   0.000000  -0.283368  -0.000000  -0.000000   30.0000     0.9915
    7.600     0.000   0.116760   0.002539   0.004289   0.006828   0.000000   0.000000  -0.295680  -0.000000  -0.000000   30.0000     0.9918
    7.800     0.000   0.121638   0.002754   0.004322   0.007076   0.000000   0.000000  -0.307974  -0.000000  -0.000000   30.0000     0.9920
    8.000     0.000   0.126511   0.002978   0.004355   0.007333   0.000000   0.000000  -0.320250  -0.000000  -0.000000   30.0000     0.9923
    8.200     0.000   0.131381   0.003210   0.004390   0.007600   0.000000   0.000000  -0.332507  -0.000000  -0.000000   30.0000     0.9926
    8.400     0.000   0.136245   0.003451   0.004422   0.007873   0.000000   0.000000  -0.344744  -0.000000  -0.000000   30.0000     0.9928
    8.600     0.000   0.141105   0.003700   0.004456   0.008156   0.000000   0.000000  -0.356961  -0.000000  -0.000000   30.0000     0.9931
    8.800     0.000   0.145960   0.003958   0.004490   0.008448   0.000000   0.000000  -0.369157  -0.000000  -0.000000   30.0000     0.9934
    9.000     0.000   0.150811   0.004224   0.004526   0.008750   0.000000   0.000000  -0.381332  -0.000000  -0.000000   30.0000     0.9937
    9.200     0.000   0.155656   0.004499   0.004564   0.009063   0.000000   0.000000  -0.393486  -0.000000  -0.000000   30.0000     0.9939
    9.400     0.000   0.160495   0.004782   0.004601   0.009383   0.000000   0.000000  -0.405618  -0.000000  -0.000000   30.0000     0.9942
    9.600     0.000   0.165330   0.005073   0.004639   0.009712   0.000000   0.000000  -0.417726  -0.000000  -0.000000   30.0000     0.9945
    9.800     0.000   0.170158   0.005372   0.004675   0.010048   0.000000   0.000000  -0.429809  -0.000000  -0.000000   30.0000     0.9948
   10.000     0.000   0.174982   0.005680   0.004714   0.010394   0.000000   0.000000  -0.441870  -0.000000  -0.000000   30.0000     0.9951
   10.200     0.000   0.179799   0.005996   0.004753   0.010749   0.000000   0.000000  -0.453906  -0.000000  -0.000000   30.0000     0.9954
   10.400     0.000   0.184610   0.006320   0.004795   0.011115   0.000000   0.000000  -0.465917  -0.000000  -0.000000   30.0000     0.9957
   10.600     0.000   0.189415   0.006652   0.004840   0.011492   0.000000   0.000000  -0.477904  -0.000000  -0.000000   30.0000     0.9960
   10.800     0.000   0.194214   0.006991   0.004890   0.011882   0.000000   0.000000  -0.489867  -0.000000  -0.000000   30.0000     0.9963
   11.000     0.000   0.199006   0.007339   0.004946   0.012285   0.000000   0.000000  -0.501805  -0.000000  -0.000000   30.0000     0.9966
   11.200     0.000   0.203792   0.007695   0.005006   0.012701   0.000000   0.000000  -0.513718  -0.000000  -0.000000   30.0000     0.9970
   11.400     0.000   0.208571   0.008059   0.005071   0.013130   0.000000   0.000000  -0.525605  -0.000000  -0.000000   30.0000     0.9973
   11.600     0.000   0.213343   0.008431   0.005140   0.013571   0.000000   0.000000  -0.537466  -0.000000  -0.000000   30.0000     0.9976
   11.800     0.000   0.218109   0.008810   0.005212   0.014022   0.000000   0.000000  -0.549299  -0.000000  -0.000000   30.0000     0.9980
   12.000     0.000   0.222867   0.009197   0.005285   0.014482   0.000000   0.000000  -0.561104  -0.000000  -0.000000   30.0000     0.9983
   12.200     0.000   0.227618   0.009592   0.005365   0.014957   0.000000   0.000000  -0.572882  -0.000000  -0.000000   30.0000     0.9987
   12.400     0.000   0.232361   0.009995   0.005444   0.015439   0.000000   0.000000  -0.584628  -0.000000  -0.000000   30.0000     0.9990
   12.600     0.000   0.237097   0.010405   0.005529   0.015933   0.000000   0.000000  -0.596347  -0.000000  -0.000000   30.0000     0.9994
   12.800     0.000   0.241825   0.010822   0.005611   0.016433   0.000000   0.000000  -0.608032  -0.000000  -0.000000   30.0000     0.9998
   13.000     0.000   0.246545   0.011247   0.005704   0.016951   0.000000   0.000000  -0.619692  -0.000000  -0.000000   30.0000     1.0002
   13.200     0.000   0.251258   0.011680   0.005787   0.017466   0.000000   0.000000  -0.631313  -0.000000  -0.000000   30.0000     1.0005
   13.400     0.000   0.255962   0.012119   0.005877   0.017996   0.000000   0.000000  -0.642905  -0.000000  -0.000000   30.0000     1.0009
   13.600     0.000   0.260658   0.012566   0.005987   0.018553   0.000000   0.000000  -0.654475  -0.000000  -0.000000   30.0000     1.0013
   13.800     0.000   0.265346   0.013021   0.006083   0.019104   0.000000   0.000000  -0.666003  -0.000000  -0.000000   30.0000     1.0017
   14.000     0.000   0.270025   0.013482   0.006177   0.019659   0.000000   0.000000  -0.677494  -0.000000  -0.000000   30.0000     1.0021
   14.200     0.000   0.274695   0.013951   0.006277   0.020228   0.000000   0.000000  -0.688954  -0.000000  -0.000000   30.0000     1.0025
   14.400     0.000   0.279357   0.014426   0.006423   0.020849   0.000000   0.000000  -0.700407  -0.000000  -0.000000   30.0000     1.0029
   14.600     0.000   0.284010   0.014909   0.006548   0.021457   0.000000   0.000000  -0.711810  -0.000000  -0.000000   30.0000     1.0034
   14.800     0.000   0.288654   0.015399   0.006669   0.022067   0.000000   0.000000  -0.723175  -0.000000  -0.000000   30.0000     1.0038
   15.000     0.000   0.293289   0.015895   0.006778   0.022673   0.000000   0.000000  -0.734495  -0.000000  -0.000000   30.0000     1.0042
   15.200     0.000   0.297914   0.016398   0.006887   0.023285   0.000000   0.000000  -0.745777  -0.000000  -0.000000   30.0000     1.0047
   15.400     0.000   0.302530   0.016908   0.007007   0.023916   0.000000   0.000000  -0.757028  -0.000000  -0.000000   30.0000     1.0051
   15.600     0.000   0.307136   0.017425   0.007205   0.024630   0.000000   0.000000  -0.768293  -0.000000  -0.000000   30.0000     1.0056


