xflr5 v6.38

Plane name :        Decode1_Wing_modif-dAS
Polar name :        T1-30.0 m/s-VLM2-15.0kg-x39.1mm-proj_area
Freestream speed :  30.000 m/s


   alpha      Beta       CL          CDi        CDv        CD         CY         Cl         Cm         Cn        Cni       QInf        XCP
   -2.800     0.000  -0.418870   0.010970   0.013399   0.024368   0.000000  -0.000000   0.243380  -0.000000  -0.000000   30.0000     0.2347
   -2.600     0.000  -0.401479   0.010298   0.013070   0.023368   0.000000  -0.000000   0.237839  -0.000000  -0.000000   30.0000     0.2385
   -2.400     0.000  -0.384077   0.009655   0.012779   0.022434   0.000000  -0.000000   0.232290  -0.000000  -0.000000   30.0000     0.2426
   -2.200     0.000  -0.366665   0.009040   0.012621   0.021661   0.000000  -0.000000   0.226733  -0.000000  -0.000000   30.0000     0.2471
   -2.000     0.000  -0.349243   0.008454   0.012179   0.020633   0.000000  -0.000000   0.221164  -0.000000  -0.000000   30.0000     0.2521
   -1.800     0.000  -0.331812   0.007897   0.012052   0.019949   0.000000  -0.000000   0.215592  -0.000000  -0.000000   30.0000     0.2576
   -1.600     0.000  -0.314372   0.007369   0.011943   0.019312   0.000000  -0.000000   0.210013  -0.000000  -0.000000   30.0000     0.2638
   -1.400     0.000  -0.296925   0.006870   0.011833   0.018702   0.000000  -0.000000   0.204426  -0.000000  -0.000000   30.0000     0.2706
   -1.200     0.000  -0.279469   0.006399   0.011431   0.017830   0.000000  -0.000000   0.198828  -0.000000  -0.000000   30.0000     0.2783
   -1.000     0.000  -0.262007   0.005958   0.011359   0.017317   0.000000  -0.000000   0.193228  -0.000000  -0.000000   30.0000     0.2871
   -0.800     0.000  -0.244538   0.005545   0.011009   0.016554   0.000000  -0.000000   0.187618  -0.000000  -0.000000   30.0000     0.2971
   -0.600     0.000  -0.227063   0.005162   0.010687   0.015849   0.000000  -0.000000   0.182002  -0.000000  -0.000000   30.0000     0.3086
   -0.400     0.000  -0.209582   0.004808   0.010350   0.015158   0.000000  -0.000000   0.176381  -0.000000  -0.000000   30.0000     0.3221
   -0.200     0.000  -0.192097   0.004483   0.010296   0.014778   0.000000  -0.000000   0.170758  -0.000000  -0.000000   30.0000     0.3380
    0.000     0.000  -0.174607   0.004187   0.010082   0.014269   0.000000   0.000000   0.165130  -0.000000  -0.000000   30.0000     0.3571
    0.200     0.000  -0.157112   0.003920   0.009858   0.013778   0.000000   0.000000   0.159497  -0.000000  -0.000000   30.0000     0.3805
    0.400     0.000  -0.139615   0.003682   0.009668   0.013351   0.000000   0.000000   0.153859  -0.000000  -0.000000   30.0000     0.4097
    0.600     0.000  -0.122115   0.003474   0.009549   0.013023   0.000000   0.000000   0.148216  -0.000000  -0.000000   30.0000     0.4473
    0.800     0.000  -0.104612   0.003295   0.009471   0.012766   0.000000   0.000000   0.142569  -0.000000  -0.000000   30.0000     0.4975
    1.000     0.000  -0.087107   0.003145   0.009374   0.012519   0.000000   0.000000   0.136919  -0.000000  -0.000000   30.0000     0.5679
    1.200     0.000  -0.069601   0.003025   0.009321   0.012346   0.000000   0.000000   0.131264  -0.000000  -0.000000   30.0000     0.6737
    1.400     0.000  -0.052094   0.002933   0.009305   0.012239   0.000000   0.000000   0.125606  -0.000000  -0.000000   30.0000     0.8506
    1.600     0.000  -0.034586   0.002871   0.009319   0.012191   0.000000   0.000000   0.119944  -0.000000  -0.000000   30.0000     1.2066
    1.800     0.000  -0.017079   0.002839   0.009350   0.012189   0.000000   0.000000   0.114279  -0.000000  -0.000000   30.0000     2.2925
    2.000     0.000   0.000427   0.002835   0.009399   0.012234   0.000000   0.000000   0.108611  -0.000000  -0.000000   30.0000   -85.6406
    2.200     0.000   0.017932   0.002861   0.009457   0.012317   0.000000   0.000000   0.102941  -0.000000  -0.000000   30.0000    -1.8956
    2.400     0.000   0.035436   0.002916   0.009514   0.012430   0.000000   0.000000   0.097268  -0.000000  -0.000000   30.0000    -0.8864
    2.600     0.000   0.052937   0.003000   0.009566   0.012566   0.000000   0.000000   0.091593  -0.000000  -0.000000   30.0000    -0.5446
    2.800     0.000   0.070435   0.003113   0.009624   0.012737   0.000000   0.000000   0.085917  -0.000000  -0.000000   30.0000    -0.3726
    3.000     0.000   0.087930   0.003256   0.009687   0.012943   0.000000   0.000000   0.080239  -0.000000  -0.000000   30.0000    -0.2691
    3.200     0.000   0.105422   0.003427   0.009755   0.013183   0.000000   0.000000   0.074559  -0.000000  -0.000000   30.0000    -0.2000
    3.400     0.000   0.122909   0.003628   0.009827   0.013455   0.000000   0.000000   0.068879  -0.000000  -0.000000   30.0000    -0.1505
    3.600     0.000   0.140391   0.003858   0.009899   0.013757   0.000000   0.000000   0.063198  -0.000000  -0.000000   30.0000    -0.1134
    3.800     0.000   0.157867   0.004116   0.009971   0.014087   0.000000   0.000000   0.057517  -0.000000  -0.000000   30.0000    -0.0845
    4.000     0.000   0.175338   0.004404   0.010042   0.014446   0.000000   0.000000   0.051836  -0.000000  -0.000000   30.0000    -0.0613
    4.200     0.000   0.192802   0.004721   0.010116   0.014836   0.000000   0.000000   0.046155  -0.000000  -0.000000   30.0000    -0.0424
    4.400     0.000   0.210260   0.005066   0.010186   0.015253   0.000000   0.000000   0.040474  -0.000000  -0.000000   30.0000    -0.0266
    4.600     0.000   0.227710   0.005441   0.010256   0.015696   0.000000   0.000000   0.034794  -0.000000  -0.000000   30.0000    -0.0132
    4.800     0.000   0.245152   0.005844   0.010327   0.016171   0.000000   0.000000   0.029114  -0.000000  -0.000000   30.0000    -0.0017
    5.000     0.000   0.262586   0.006275   0.010397   0.016672   0.000000   0.000000   0.023436  -0.000000  -0.000000   30.0000     0.0083
    5.200     0.000   0.280010   0.006736   0.010466   0.017202   0.000000   0.000000   0.017760  -0.000000  -0.000000   30.0000     0.0170
    5.400     0.000   0.297425   0.007225   0.010537   0.017762   0.000000   0.000000   0.012085  -0.000000  -0.000000   30.0000     0.0247
    5.600     0.000   0.314830   0.007743   0.010608   0.018350   0.000000   0.000000   0.006412  -0.000000  -0.000000   30.0000     0.0315
    5.800     0.000   0.332225   0.008288   0.010677   0.018966   0.000000   0.000000   0.000742  -0.000000  -0.000000   30.0000     0.0376
    6.000     0.000   0.349609   0.008863   0.010752   0.019615   0.000000   0.000000  -0.004927  -0.000000  -0.000000   30.0000     0.0432
    6.200     0.000   0.366981   0.009465   0.010826   0.020291   0.000000   0.000000  -0.010592  -0.000000  -0.000000   30.0000     0.0481
    6.400     0.000   0.384341   0.010096   0.010898   0.020994   0.000000   0.000000  -0.016254  -0.000000  -0.000000   30.0000     0.0527
    6.600     0.000   0.401688   0.010755   0.010967   0.021722   0.000000   0.000000  -0.021913  -0.000000  -0.000000   30.0000     0.0568
    6.800     0.000   0.419022   0.011442   0.011038   0.022480   0.000000   0.000000  -0.027569  -0.000000  -0.000000   30.0000     0.0607
    7.000     0.000   0.436343   0.012157   0.011113   0.023269   0.000000   0.000000  -0.033221  -0.000000  -0.000000   30.0000     0.0642
    7.200     0.000   0.453650   0.012899   0.011188   0.024087   0.000000   0.000000  -0.038869  -0.000000  -0.000000   30.0000     0.0674
    7.400     0.000   0.470942   0.013670   0.011256   0.024926   0.000000   0.000000  -0.044513  -0.000000  -0.000000   30.0000     0.0704
    7.600     0.000   0.488219   0.014467   0.011325   0.025793   0.000000   0.000000  -0.050151  -0.000000  -0.000000   30.0000     0.0732
    7.800     0.000   0.505480   0.015293   0.011401   0.026694   0.000000   0.000000  -0.055786  -0.000000  -0.000000   30.0000     0.0758
    8.000     0.000   0.522726   0.016146   0.011481   0.027627   0.000000   0.000000  -0.061415  -0.000000  -0.000000   30.0000     0.0783
    8.200     0.000   0.539955   0.017026   0.011557   0.028582   0.000000   0.000000  -0.067039  -0.000000  -0.000000   30.0000     0.0805
    8.400     0.000   0.557166   0.017933   0.011628   0.029561   0.000000   0.000000  -0.072657  -0.000000  -0.000000   30.0000     0.0827
    8.600     0.000   0.574361   0.018867   0.011709   0.030576   0.000000   0.000000  -0.078270  -0.000000  -0.000000   30.0000     0.0847
    8.800     0.000   0.591537   0.019828   0.011794   0.031622   0.000000   0.000000  -0.083876  -0.000000  -0.000000   30.0000     0.0866
    9.000     0.000   0.608694   0.020816   0.011886   0.032702   0.000000   0.000000  -0.089476  -0.000000  -0.000000   30.0000     0.0884
    9.200     0.000   0.625833   0.021830   0.011978   0.033809   0.000000   0.000000  -0.095070  -0.000000  -0.000000   30.0000     0.0901
    9.400     0.000   0.642952   0.022871   0.012069   0.034941   0.000000   0.000000  -0.100656  -0.000000  -0.000000   30.0000     0.0917
    9.600     0.000   0.660051   0.023939   0.012166   0.036105   0.000000   0.000000  -0.106236  -0.000000  -0.000000   30.0000     0.0932
    9.800     0.000   0.677129   0.025032   0.012267   0.037299   0.000000   0.000000  -0.111808  -0.000000  -0.000000   30.0000     0.0947
   10.000     0.000   0.694187   0.026152   0.012372   0.038524   0.000000   0.000000  -0.117373  -0.000000  -0.000000   30.0000     0.0960
   10.200     0.000   0.711223   0.027298   0.012480   0.039777   0.000000   0.000000  -0.122929  -0.000000  -0.000000   30.0000     0.0974
   10.400     0.000   0.728237   0.028469   0.012589   0.041058   0.000000   0.000000  -0.128477  -0.000000  -0.000000   30.0000     0.0986
   10.600     0.000   0.745228   0.029666   0.012696   0.042362   0.000000   0.000000  -0.134017  -0.000000  -0.000000   30.0000     0.0998
   10.800     0.000   0.762197   0.030888   0.012806   0.043694   0.000000   0.000000  -0.139548  -0.000000  -0.000000   30.0000     0.1010
   11.000     0.000   0.779142   0.032136   0.012929   0.045065   0.000000   0.000000  -0.145070  -0.000000  -0.000000   30.0000     0.1021
   11.200     0.000   0.796063   0.033409   0.013050   0.046459   0.000000   0.000000  -0.150583  -0.000000  -0.000000   30.0000     0.1031
   11.400     0.000   0.812960   0.034707   0.013170   0.047877   0.000000   0.000000  -0.156085  -0.000000  -0.000000   30.0000     0.1041
   11.600     0.000   0.829833   0.036029   0.013285   0.049314   0.000000   0.000000  -0.161577  -0.000000  -0.000000   30.0000     0.1051
   11.800     0.000   0.846680   0.037377   0.013409   0.050786   0.000000   0.000000  -0.167061  -0.000000  -0.000000   30.0000     0.1061
   12.000     0.000   0.863501   0.038748   0.013536   0.052284   0.000000   0.000000  -0.172533  -0.000000  -0.000000   30.0000     0.1070
   12.200     0.000   0.880296   0.040144   0.013660   0.053804   0.000000   0.000000  -0.177994  -0.000000  -0.000000   30.0000     0.1078
   12.400     0.000   0.897064   0.041564   0.013789   0.055354   0.000000   0.000000  -0.183445  -0.000000  -0.000000   30.0000     0.1087
   12.600     0.000   0.913805   0.043008   0.013921   0.056929   0.000000   0.000000  -0.188886  -0.000000  -0.000000   30.0000     0.1095
   12.800     0.000   0.930519   0.044476   0.014053   0.058529   0.000000   0.000000  -0.194313  -0.000000  -0.000000   30.0000     0.1103
   13.000     0.000   0.947204   0.045967   0.014191   0.060158   0.000000   0.000000  -0.199728  -0.000000  -0.000000   30.0000     0.1110
   13.200     0.000   0.963861   0.047481   0.014330   0.061811   0.000000   0.000000  -0.205133  -0.000000  -0.000000   30.0000     0.1118
   13.400     0.000   0.980489   0.049019   0.014469   0.063488   0.000000   0.000000  -0.210524  -0.000000  -0.000000   30.0000     0.1125
   13.600     0.000   0.997088   0.050580   0.014616   0.065195   0.000000   0.000000  -0.215903  -0.000000  -0.000000   30.0000     0.1132
   13.800     0.000   1.013657   0.052163   0.014767   0.066929   0.000000   0.000000  -0.221269  -0.000000  -0.000000   30.0000     0.1138
   14.000     0.000   1.030195   0.053769   0.014924   0.068692   0.000000   0.000000  -0.226623  -0.000000  -0.000000   30.0000     0.1145
   14.200     0.000   1.046703   0.055397   0.015091   0.070487   0.000000   0.000000  -0.231963  -0.000000  -0.000000   30.0000     0.1151
   14.400     0.000   1.063180   0.057047   0.015258   0.072305   0.000000   0.000000  -0.237290  -0.000000  -0.000000   30.0000     0.1157
   14.600     0.000   1.079624   0.058719   0.015435   0.074153   0.000000   0.000000  -0.242604  -0.000000  -0.000000   30.0000     0.1163
   14.800     0.000   1.096037   0.060412   0.015625   0.076038   0.000000   0.000000  -0.247904  -0.000000  -0.000000   30.0000     0.1169
   15.000     0.000   1.112418   0.062128   0.015819   0.077947   0.000000   0.000000  -0.253189  -0.000000  -0.000000   30.0000     0.1175
   15.200     0.000   1.128765   0.063864   0.016023   0.079887   0.000000   0.000000  -0.258459  -0.000000  -0.000000   30.0000     0.1180
   15.400     0.000   1.145079   0.065621   0.016240   0.081862   0.000000   0.000000  -0.263716  -0.000000  -0.000000   30.0000     0.1186
   15.600     0.000   1.161360   0.067400   0.016476   0.083875   0.000000   0.000000  -0.268959  -0.000000  -0.000000   30.0000     0.1191


