xflr5 v6.38

Plane name :        Decode1_Wing_modif
Polar name :        T1-30.0 m/s-VLM2-15.0kg-x39.1mm
Freestream speed :  30.000 m/s


   alpha      Beta       CL          CDi        CDv        CD         CY         Cl         Cm         Cn        Cni       QInf        XCP
   -4.000     0.000  -0.318302   0.005442   0.012352   0.017794  -0.000000  -0.000000   0.194394   0.000000   0.000000   30.0000     0.2448
   -3.800     0.000  -0.300021   0.004946   0.012164   0.017111  -0.000000  -0.000000   0.188449   0.000000   0.000000   30.0000     0.2506
   -3.600     0.000  -0.281732   0.004477   0.011969   0.016446  -0.000000  -0.000000   0.182495   0.000000   0.000000   30.0000     0.2571
   -3.400     0.000  -0.263433   0.004034   0.011807   0.015840  -0.000000  -0.000000   0.176534   0.000000   0.000000   30.0000     0.2646
   -3.200     0.000  -0.245126   0.003617   0.011675   0.015292  -0.000000  -0.000000   0.170565   0.000000   0.000000   30.0000     0.2732
   -3.000     0.000  -0.226811   0.003226   0.011522   0.014748  -0.000000  -0.000000   0.164588   0.000000   0.000000   30.0000     0.2831
   -2.800     0.000  -0.208489   0.002861   0.011384   0.014245  -0.000000  -0.000000   0.158604   0.000000   0.000000   30.0000     0.2949
   -2.600     0.000  -0.190160   0.002522   0.011274   0.013796  -0.000000  -0.000000   0.152614   0.000000   0.000000   30.0000     0.3089
   -2.400     0.000  -0.171824   0.002210   0.011167   0.013377  -0.000000  -0.000000   0.146616   0.000000   0.000000   30.0000     0.3259
   -2.200     0.000  -0.153483   0.001924   0.011070   0.012994  -0.000000  -0.000000   0.140612   0.000000   0.000000   30.0000     0.3469
   -2.000     0.000  -0.135137   0.001664   0.010976   0.012640  -0.000000  -0.000000   0.134603   0.000000   0.000000   30.0000     0.3737
   -1.800     0.000  -0.116785   0.001430   0.010890   0.012321  -0.000000  -0.000000   0.128587   0.000000   0.000000   30.0000     0.4090
   -1.600     0.000  -0.098429   0.001224   0.010804   0.012027   0.000000  -0.000000   0.122566  -0.000000  -0.000000   30.0000     0.4574
   -1.400     0.000  -0.080070   0.001043   0.010691   0.011735   0.000000  -0.000000   0.116539  -0.000000  -0.000000   30.0000     0.5279
   -1.200     0.000  -0.061707   0.000889   0.010488   0.011378   0.000000  -0.000000   0.110508  -0.000000  -0.000000   30.0000     0.6405
   -1.000     0.000  -0.043341   0.000762   0.009639   0.010401   0.000000  -0.000000   0.104470  -0.000000  -0.000000   30.0000     0.8486
   -0.800     0.000  -0.024973   0.000661   0.008906   0.009567   0.000000  -0.000000   0.098429  -0.000000  -0.000000   30.0000     1.3627
   -0.600     0.000  -0.006603   0.000587   0.008570   0.009157   0.000000  -0.000000   0.092385  -0.000000  -0.000000   30.0000     4.7379
   -0.400     0.000   0.011768   0.000539   0.008401   0.008939   0.000000  -0.000000   0.086337  -0.000000  -0.000000   30.0000    -2.4248
   -0.200     0.000   0.030141   0.000518   0.008296   0.008813   0.000000   0.000000   0.080286  -0.000000  -0.000000   30.0000    -0.8556
    0.000     0.000   0.048513   0.000523   0.008231   0.008754   0.000000   0.000000   0.074232  -0.000000  -0.000000   30.0000    -0.4749
    0.200     0.000   0.066885   0.000555   0.008203   0.008758   0.000000   0.000000   0.068175  -0.000000  -0.000000   30.0000    -0.3034
    0.400     0.000   0.085257   0.000614   0.008202   0.008815   0.000000   0.000000   0.062115  -0.000000  -0.000000   30.0000    -0.2057
    0.600     0.000   0.103628   0.000699   0.008225   0.008924   0.000000   0.000000   0.056053  -0.000000  -0.000000   30.0000    -0.1427
    0.800     0.000   0.121996   0.000811   0.008272   0.009083   0.000000   0.000000   0.049988  -0.000000  -0.000000   30.0000    -0.0987
    1.000     0.000   0.140363   0.000949   0.008335   0.009284   0.000000   0.000000   0.043922  -0.000000  -0.000000   30.0000    -0.0662
    1.200     0.000   0.158727   0.001114   0.008417   0.009531   0.000000   0.000000   0.037854  -0.000000  -0.000000   30.0000    -0.0412
    1.400     0.000   0.177088   0.001306   0.008513   0.009819   0.000000   0.000000   0.031785  -0.000000  -0.000000   30.0000    -0.0214
    1.600     0.000   0.195445   0.001524   0.008627   0.010151   0.000000   0.000000   0.025714  -0.000000  -0.000000   30.0000    -0.0053
    1.800     0.000   0.213798   0.001768   0.008750   0.010518   0.000000   0.000000   0.019643  -0.000000  -0.000000   30.0000     0.0080
    2.000     0.000   0.232146   0.002039   0.008873   0.010913   0.000000   0.000000   0.013572  -0.000000  -0.000000   30.0000     0.0192
    2.200     0.000   0.250489   0.002337   0.008992   0.011329   0.000000   0.000000   0.007500  -0.000000  -0.000000   30.0000     0.0288
    2.400     0.000   0.268826   0.002661   0.009105   0.011766   0.000000   0.000000   0.001428  -0.000000  -0.000000   30.0000     0.0370
    2.600     0.000   0.287157   0.003012   0.009220   0.012232   0.000000   0.000000  -0.004643  -0.000000  -0.000000   30.0000     0.0443
    2.800     0.000   0.305481   0.003389   0.009335   0.012724   0.000000   0.000000  -0.010714  -0.000000  -0.000000   30.0000     0.0506
    3.000     0.000   0.323799   0.003792   0.009448   0.013239   0.000000   0.000000  -0.016784  -0.000000  -0.000000   30.0000     0.0562
    3.200     0.000   0.342108   0.004221   0.009552   0.013774   0.000000   0.000000  -0.022852  -0.000000  -0.000000   30.0000     0.0613
    3.400     0.000   0.360410   0.004677   0.009655   0.014332   0.000000   0.000000  -0.028919  -0.000000  -0.000000   30.0000     0.0658
    3.600     0.000   0.378702   0.005159   0.009756   0.014915   0.000000   0.000000  -0.034985  -0.000000  -0.000000   30.0000     0.0699
    3.800     0.000   0.396986   0.005667   0.009851   0.015518   0.000000   0.000000  -0.041048  -0.000000  -0.000000   30.0000     0.0736
    4.000     0.000   0.415259   0.006201   0.009943   0.016144   0.000000   0.000000  -0.047108  -0.000000  -0.000000   30.0000     0.0769
    4.200     0.000   0.433523   0.006761   0.010032   0.016794   0.000000   0.000000  -0.053166  -0.000000  -0.000000   30.0000     0.0800
    4.400     0.000   0.451776   0.007348   0.010122   0.017470   0.000000   0.000000  -0.059221  -0.000000  -0.000000   30.0000     0.0829
    4.600     0.000   0.470018   0.007960   0.010211   0.018171   0.000000   0.000000  -0.065273  -0.000000  -0.000000   30.0000     0.0855
    4.800     0.000   0.488248   0.008598   0.010301   0.018899   0.000000   0.000000  -0.071322  -0.000000  -0.000000   30.0000     0.0879
    5.000     0.000   0.506466   0.009262   0.010389   0.019650   0.000000   0.000000  -0.077367  -0.000000  -0.000000   30.0000     0.0902
    5.200     0.000   0.524671   0.009951   0.010465   0.020416   0.000000   0.000000  -0.083407  -0.000000  -0.000000   30.0000     0.0923
    5.400     0.000   0.542863   0.010666   0.010550   0.021216   0.000000   0.000000  -0.089443  -0.000000  -0.000000   30.0000     0.0943
    5.600     0.000   0.561042   0.011407   0.010640   0.022047   0.000000   0.000000  -0.095475  -0.000000  -0.000000   30.0000     0.0961
    5.800     0.000   0.579206   0.012173   0.010715   0.022887   0.000000   0.000000  -0.101502  -0.000000  -0.000000   30.0000     0.0978
    6.000     0.000   0.597356   0.012964   0.010794   0.023758   0.000000   0.000000  -0.107524  -0.000000  -0.000000   30.0000     0.0994
    6.200     0.000   0.615490   0.013781   0.010880   0.024661   0.000000   0.000000  -0.113540  -0.000000  -0.000000   30.0000     0.1010
    6.400     0.000   0.633610   0.014623   0.010957   0.025579   0.000000   0.000000  -0.119551  -0.000000  -0.000000   30.0000     0.1024
    6.600     0.000   0.651713   0.015490   0.011038   0.026528   0.000000   0.000000  -0.125556  -0.000000  -0.000000   30.0000     0.1038
    6.800     0.000   0.669799   0.016381   0.011121   0.027502   0.000000   0.000000  -0.131554  -0.000000  -0.000000   30.0000     0.1051
    7.000     0.000   0.687868   0.017298   0.011208   0.028506   0.000000   0.000000  -0.137547  -0.000000  -0.000000   30.0000     0.1063
    7.200     0.000   0.705920   0.018240   0.011303   0.029543   0.000000   0.000000  -0.143532  -0.000000  -0.000000   30.0000     0.1074
    7.400     0.000   0.723954   0.019206   0.011391   0.030597   0.000000   0.000000  -0.149510  -0.000000  -0.000000   30.0000     0.1085
    7.600     0.000   0.741970   0.020197   0.011503   0.031700   0.000000   0.000000  -0.155481  -0.000000  -0.000000   30.0000     0.1096
    7.800     0.000   0.759966   0.021212   0.011619   0.032832   0.000000   0.000000  -0.161445  -0.000000  -0.000000   30.0000     0.1106
    8.000     0.000   0.777943   0.022252   0.011730   0.033982   0.000000   0.000000  -0.167400  -0.000000  -0.000000   30.0000     0.1116
    8.200     0.000   0.795900   0.023316   0.011848   0.035163   0.000000   0.000000  -0.173348  -0.000000  -0.000000   30.0000     0.1125
    8.400     0.000   0.813837   0.024404   0.011980   0.036383   0.000000   0.000000  -0.179287  -0.000000  -0.000000   30.0000     0.1133
    8.600     0.000   0.831753   0.025515   0.012125   0.037640   0.000000   0.000000  -0.185218  -0.000000  -0.000000   30.0000     0.1142
    8.800     0.000   0.849647   0.026651   0.012240   0.038891   0.000000   0.000000  -0.191139  -0.000000  -0.000000   30.0000     0.1150
    9.000     0.000   0.867520   0.027810   0.012371   0.040182   0.000000   0.000000  -0.197052  -0.000000  -0.000000   30.0000     0.1158
    9.200     0.000   0.885370   0.028993   0.012517   0.041510   0.000000   0.000000  -0.202954  -0.000000  -0.000000   30.0000     0.1165
    9.400     0.000   0.903198   0.030200   0.012664   0.042864   0.000000   0.000000  -0.208847  -0.000000  -0.000000   30.0000     0.1172
    9.600     0.000   0.921002   0.031429   0.012793   0.044223   0.000000   0.000000  -0.214729  -0.000000  -0.000000   30.0000     0.1179
    9.800     0.000   0.938783   0.032682   0.012936   0.045618   0.000000   0.000000  -0.220600  -0.000000  -0.000000   30.0000     0.1186
   10.000     0.000   0.956540   0.033958   0.013099   0.047057   0.000000   0.000000  -0.226462  -0.000000  -0.000000   30.0000     0.1192
   10.200     0.000   0.974272   0.035256   0.013244   0.048500   0.000000   0.000000  -0.232312  -0.000000  -0.000000   30.0000     0.1199
   10.400     0.000   0.991979   0.036578   0.013386   0.049963   0.000000   0.000000  -0.238150  -0.000000  -0.000000   30.0000     0.1205
   10.600     0.000   1.009660   0.037921   0.013538   0.051459   0.000000   0.000000  -0.243977  -0.000000  -0.000000   30.0000     0.1210
   10.800     0.000   1.027316   0.039288   0.013705   0.052993   0.000000   0.000000  -0.249793  -0.000000  -0.000000   30.0000     0.1216
   11.000     0.000   1.044945   0.040676   0.013862   0.054538   0.000000   0.000000  -0.255596  -0.000000  -0.000000   30.0000     0.1222
   11.200     0.000   1.062547   0.042086   0.014013   0.056099   0.000000   0.000000  -0.261386  -0.000000  -0.000000   30.0000     0.1227
   11.400     0.000   1.080122   0.043519   0.014177   0.057695   0.000000   0.000000  -0.267164  -0.000000  -0.000000   30.0000     0.1232
   11.600     0.000   1.097669   0.044973   0.014340   0.059313   0.000000   0.000000  -0.272929  -0.000000  -0.000000   30.0000     0.1237
   11.800     0.000   1.115188   0.046448   0.014502   0.060950   0.000000   0.000000  -0.278679  -0.000000  -0.000000   30.0000     0.1242
   12.000     0.000   1.132679   0.047945   0.014679   0.062624   0.000000   0.000000  -0.284417  -0.000000  -0.000000   30.0000     0.1247
   12.200     0.000   1.150140   0.049463   0.014842   0.064306   0.000000   0.000000  -0.290141  -0.000000  -0.000000   30.0000     0.1251
   12.400     0.000   1.167571   0.051002   0.015016   0.066019   0.000000   0.000000  -0.295850  -0.000000  -0.000000   30.0000     0.1256
   12.600     0.000   1.184973   0.052562   0.015205   0.067768   0.000000   0.000000  -0.301545  -0.000000  -0.000000   30.0000     0.1260
   12.800     0.000   1.202344   0.054143   0.015395   0.069538   0.000000   0.000000  -0.307226  -0.000000  -0.000000   30.0000     0.1264
   13.000     0.000   1.219685   0.055744   0.015597   0.071341   0.000000   0.000000  -0.312893  -0.000000  -0.000000   30.0000     0.1268
   13.200     0.000   1.236994   0.057365   0.015810   0.073175   0.000000   0.000000  -0.318544  -0.000000  -0.000000   30.0000     0.1272
   13.400     0.000   1.254271   0.059007   0.016023   0.075029   0.000000   0.000000  -0.324181  -0.000000  -0.000000   30.0000     0.1276
   13.600     0.000   1.271517   0.060668   0.016258   0.076926   0.000000   0.000000  -0.329802  -0.000000  -0.000000   30.0000     0.1280
   13.800     0.000   1.288729   0.062349   0.016490   0.078839   0.000000   0.000000  -0.335406  -0.000000  -0.000000   30.0000     0.1284
   14.000     0.000   1.305909   0.064049   0.016750   0.080800   0.000000   0.000000  -0.340995  -0.000000  -0.000000   30.0000     0.1288
   14.200     0.000   1.323055   0.065769   0.017021   0.082790   0.000000   0.000000  -0.346568  -0.000000  -0.000000   30.0000     0.1291
   14.400     0.000   1.340168   0.067508   0.017321   0.084829   0.000000   0.000000  -0.352125  -0.000000  -0.000000   30.0000     0.1295
   14.600     0.000   1.357246   0.069265   0.017662   0.086927   0.000000   0.000000  -0.357666  -0.000000  -0.000000   30.0000     0.1298
   14.800     0.000   1.374290   0.071042   0.018028   0.089069   0.000000   0.000000  -0.363191  -0.000000  -0.000000   30.0000     0.1302
   15.000     0.000   1.391298   0.072836   0.018442   0.091279   0.000000   0.000000  -0.368700  -0.000000  -0.000000   30.0000     0.1305
   15.200     0.000   1.408272   0.074649   0.018916   0.093565   0.000000   0.000000  -0.374194  -0.000000  -0.000000   30.0000     0.1308
   15.400     0.000   1.425209   0.076480   0.019496   0.095976   0.000000   0.000000  -0.379675  -0.000000  -0.000000   30.0000     0.1311
   15.600     0.000   1.442110   0.078329   0.020255   0.098584   0.000000   0.000000  -0.385144  -0.000000  -0.000000   30.0000     0.1315


