xflr5 v6.38

Plane name :        Decode1_Wing_modif
Polar name :        T1-30.0 m/s-VLM2-15.0kg-x39.1mm
Freestream speed :  30.000 m/s


   alpha      Beta       CL          CDi        CDv        CD         CY         Cl         Cm         Cn        Cni       QInf        XCP
   -4.000     0.000  -0.197857   0.002104   0.012091   0.014195  -0.000000   0.000000  -0.112376   0.000000   0.000000   30.0000    -0.1532
   -3.800     0.000  -0.179570   0.001912   0.011906   0.013818  -0.000000   0.000000  -0.118293   0.000000   0.000000   30.0000    -0.1838
   -3.600     0.000  -0.161278   0.001747   0.011758   0.013505  -0.000000   0.000000  -0.124212   0.000000   0.000000   30.0000    -0.2214
   -3.400     0.000  -0.142982   0.001608   0.011640   0.013248  -0.000000   0.000000  -0.130130   0.000000   0.000000   30.0000    -0.2687
   -3.200     0.000  -0.124683   0.001495   0.011508   0.013003  -0.000000   0.000000  -0.136049   0.000000   0.000000   30.0000    -0.3298
   -3.000     0.000  -0.106380   0.001409   0.011381   0.012790  -0.000000   0.000000  -0.141969   0.000000   0.000000   30.0000    -0.4119
   -2.800     0.000  -0.088075   0.001349   0.011285   0.012634  -0.000000   0.000000  -0.147887   0.000000   0.000000   30.0000    -0.5281
   -2.600     0.000  -0.069767   0.001316   0.011197   0.012513  -0.000000   0.000000  -0.153806   0.000000   0.000000   30.0000    -0.7054
   -2.400     0.000  -0.051458   0.001309   0.011117   0.012425  -0.000000   0.000000  -0.159724   0.000000   0.000000   30.0000    -1.0089
   -2.200     0.000  -0.033147   0.001328   0.011039   0.012367  -0.000000   0.000000  -0.165640   0.000000   0.000000   30.0000    -1.6476
   -2.000     0.000  -0.014836   0.001374   0.010971   0.012345  -0.000000   0.000000  -0.171556   0.000000   0.000000   30.0000    -3.8629
   -1.800     0.000   0.003475   0.001446   0.010905   0.012351  -0.000000   0.000000  -0.177470   0.000000   0.000000   30.0000    17.2683
   -1.600     0.000   0.021786   0.001545   0.010827   0.012372  -0.000000   0.000000  -0.183382   0.000000   0.000000   30.0000     2.8782
   -1.400     0.000   0.040096   0.001670   0.010687   0.012358  -0.000000   0.000000  -0.189292   0.000000   0.000000   30.0000     1.6311
   -1.200     0.000   0.058405   0.001822   0.010193   0.012015  -0.000000   0.000000  -0.195201   0.000000   0.000000   30.0000     1.1659
   -1.000     0.000   0.076712   0.002000   0.009142   0.011142  -0.000000   0.000000  -0.201108   0.000000   0.000000   30.0000     0.9228
   -0.800     0.000   0.095017   0.002205   0.008796   0.011000  -0.000000   0.000000  -0.207010   0.000000   0.000000   30.0000     0.7734
   -0.600     0.000   0.113319   0.002435   0.008611   0.011046  -0.000000   0.000000  -0.212908   0.000000   0.000000   30.0000     0.6722
   -0.400     0.000   0.131617   0.002693   0.008518   0.011211  -0.000000   0.000000  -0.218803   0.000000   0.000000   30.0000     0.5992
   -0.200     0.000   0.149912   0.002976   0.008461   0.011437  -0.000000   0.000000  -0.224694   0.000000   0.000000   30.0000     0.5440
    0.000     0.000   0.168202   0.003286   0.008446   0.011732  -0.000000   0.000000  -0.230580   0.000000   0.000000   30.0000     0.5009
    0.200     0.000   0.186488   0.003622   0.008457   0.012079  -0.000000   0.000000  -0.236462   0.000000   0.000000   30.0000     0.4662
    0.400     0.000   0.204768   0.003985   0.008492   0.012477  -0.000000   0.000000  -0.242340   0.000000   0.000000   30.0000     0.4377
    0.600     0.000   0.223043   0.004373   0.008553   0.012927  -0.000000   0.000000  -0.248213   0.000000   0.000000   30.0000     0.4139
    0.800     0.000   0.241311   0.004788   0.008632   0.013420  -0.000000   0.000000  -0.254081   0.000000   0.000000   30.0000     0.3936
    1.000     0.000   0.259572   0.005229   0.008727   0.013956  -0.000000   0.000000  -0.259943   0.000000   0.000000   30.0000     0.3763
    1.200     0.000   0.277826   0.005696   0.008838   0.014534  -0.000000   0.000000  -0.265800   0.000000   0.000000   30.0000     0.3612
    1.400     0.000   0.296072   0.006189   0.008966   0.015155  -0.000000   0.000000  -0.271651   0.000000   0.000000   30.0000     0.3480
    1.600     0.000   0.314310   0.006708   0.009107   0.015815  -0.000000   0.000000  -0.277496   0.000000   0.000000   30.0000     0.3364
    1.800     0.000   0.332540   0.007253   0.009250   0.016504  -0.000000   0.000000  -0.283335   0.000000   0.000000   30.0000     0.3260
    2.000     0.000   0.350759   0.007824   0.009391   0.017215  -0.000000   0.000000  -0.289167   0.000000   0.000000   30.0000     0.3167
    2.200     0.000   0.368970   0.008421   0.009525   0.017946  -0.000000   0.000000  -0.294992   0.000000   0.000000   30.0000     0.3083
    2.400     0.000   0.387169   0.009043   0.009661   0.018704  -0.000000   0.000000  -0.300810   0.000000   0.000000   30.0000     0.3007
    2.600     0.000   0.405358   0.009691   0.009797   0.019488  -0.000000   0.000000  -0.306620   0.000000   0.000000   30.0000     0.2938
    2.800     0.000   0.423536   0.010364   0.009932   0.020296  -0.000000   0.000000  -0.312423   0.000000   0.000000   30.0000     0.2875
    3.000     0.000   0.441702   0.011063   0.010059   0.021122  -0.000000   0.000000  -0.318218   0.000000   0.000000   30.0000     0.2817
    3.200     0.000   0.459856   0.011788   0.010183   0.021970  -0.000000   0.000000  -0.324005  -0.000000   0.000000   30.0000     0.2764
    3.400     0.000   0.477997   0.012538   0.010306   0.022843  -0.000000   0.000000  -0.329783   0.000000   0.000000   30.0000     0.2715
    3.600     0.000   0.496125   0.013313   0.010424   0.023737  -0.000000   0.000000  -0.335552   0.000000   0.000000   30.0000     0.2670
    3.800     0.000   0.514240   0.014113   0.010539   0.024652  -0.000000   0.000000  -0.341312  -0.000000   0.000000   30.0000     0.2627
    4.000     0.000   0.532340   0.014938   0.010650   0.025588  -0.000000   0.000000  -0.347063   0.000000   0.000000   30.0000     0.2588
    4.200     0.000   0.550425   0.015789   0.010761   0.026549  -0.000000   0.000000  -0.352803  -0.000000   0.000000   30.0000     0.2551
    4.400     0.000   0.568495   0.016664   0.010872   0.027536  -0.000000   0.000000  -0.358535  -0.000000   0.000000   30.0000     0.2517
    4.600     0.000   0.586550   0.017564   0.010982   0.028546  -0.000000   0.000000  -0.364256  -0.000000  -0.000000   30.0000     0.2485
    4.800     0.000   0.604588   0.018489   0.011091   0.029580  -0.000000   0.000000  -0.369966   0.000000   0.000000   30.0000     0.2455
    5.000     0.000   0.622610   0.019438   0.011191   0.030629  -0.000000   0.000000  -0.375666  -0.000000  -0.000000   30.0000     0.2426
    5.200     0.000   0.640615   0.020412   0.011294   0.031705  -0.000000   0.000000  -0.381355  -0.000000   0.000000   30.0000     0.2399
    5.400     0.000   0.658602   0.021410   0.011403   0.032813  -0.000000   0.000000  -0.387032  -0.000000   0.000000   30.0000     0.2374
    5.600     0.000   0.676572   0.022432   0.011500   0.033932  -0.000000   0.000000  -0.392698  -0.000000   0.000000   30.0000     0.2350
    5.800     0.000   0.694522   0.023479   0.011599   0.035077  -0.000000   0.000000  -0.398353  -0.000000  -0.000000   30.0000     0.2328
    6.000     0.000   0.712454   0.024549   0.011704   0.036253  -0.000000   0.000000  -0.403995  -0.000000  -0.000000   30.0000     0.2306
    6.200     0.000   0.730366   0.025644   0.011800   0.037443  -0.000000   0.000000  -0.409625  -0.000000   0.000000   30.0000     0.2286
    6.400     0.000   0.748259   0.026762   0.011897   0.038658  -0.000000   0.000000  -0.415241  -0.000000  -0.000000   30.0000     0.2266
    6.600     0.000   0.766131   0.027903   0.011998   0.039901  -0.000000   0.000000  -0.420846  -0.000000  -0.000000   30.0000     0.2248
    6.800     0.000   0.783982   0.029069   0.012106   0.041174  -0.000000   0.000000  -0.426439  -0.000000  -0.000000   30.0000     0.2230
    7.000     0.000   0.801812   0.030257   0.012221   0.042478  -0.000000   0.000000  -0.432018  -0.000000  -0.000000   30.0000     0.2214
    7.200     0.000   0.819620   0.031469   0.012325   0.043794  -0.000000   0.000000  -0.437583  -0.000000  -0.000000   30.0000     0.2198
    7.400     0.000   0.837406   0.032704   0.012448   0.045152  -0.000000   0.000000  -0.443133  -0.000000  -0.000000   30.0000     0.2182
    7.600     0.000   0.855169   0.033962   0.012581   0.046543  -0.000000   0.000000  -0.448669  -0.000000  -0.000000   30.0000     0.2168
    7.800     0.000   0.872909   0.035242   0.012709   0.047952  -0.000000   0.000000  -0.454192  -0.000000  -0.000000   30.0000     0.2154
    8.000     0.000   0.890625   0.036545   0.012841   0.049387  -0.000000   0.000000  -0.459700  -0.000000  -0.000000   30.0000     0.2140
    8.200     0.000   0.908317   0.037871   0.012994   0.050865  -0.000000   0.000000  -0.465196  -0.000000  -0.000000   30.0000     0.2128
    8.400     0.000   0.925985   0.039219   0.013165   0.052384  -0.000000   0.000000  -0.470680   0.000000   0.000000   30.0000     0.2115
    8.600     0.000   0.943628   0.040589   0.013307   0.053896  -0.000000   0.000000  -0.476144  -0.000000  -0.000000   30.0000     0.2103
    8.800     0.000   0.961245   0.041981   0.013454   0.055436  -0.000000   0.000000  -0.481593  -0.000000  -0.000000   30.0000     0.2092
    9.000     0.000   0.978836   0.043395   0.013615   0.057010  -0.000000   0.000000  -0.487025  -0.000000  -0.000000   30.0000     0.2081
    9.200     0.000   0.996401   0.044831   0.013778   0.058609  -0.000000   0.000000  -0.492440  -0.000000  -0.000000   30.0000     0.2071
    9.400     0.000   1.013940   0.046288   0.013931   0.060219  -0.000000   0.000000  -0.497840   0.000000   0.000000   30.0000     0.2060
    9.600     0.000   1.031451   0.047767   0.014086   0.061853  -0.000000   0.000000  -0.503221  -0.000000  -0.000000   30.0000     0.2051
    9.800     0.000   1.048934   0.049266   0.014261   0.063527  -0.000000   0.000000  -0.508586  -0.000000  -0.000000   30.0000     0.2041
   10.000     0.000   1.066389   0.050787   0.014429   0.065215  -0.000000   0.000000  -0.513935  -0.000000  -0.000000   30.0000     0.2032
   10.200     0.000   1.083816   0.052328   0.014594   0.066923  -0.000000   0.000000  -0.519268  -0.000000  -0.000000   30.0000     0.2024
   10.400     0.000   1.101213   0.053890   0.014787   0.068677  -0.000000   0.000000  -0.524594  -0.000000  -0.000000   30.0000     0.2015
   10.600     0.000   1.118582   0.055473   0.014979   0.070452  -0.000000  -0.000000  -0.529897  -0.000000  -0.000000   30.0000     0.2007
   10.800     0.000   1.135920   0.057075   0.015160   0.072235  -0.000000   0.000000  -0.535178  -0.000000  -0.000000   30.0000     0.1999
   11.000     0.000   1.153228   0.058698   0.015338   0.074036  -0.000000   0.000000  -0.540441  -0.000000  -0.000000   30.0000     0.1992
   11.200     0.000   1.170506   0.060341   0.015523   0.075864  -0.000000   0.000000  -0.545684  -0.000000  -0.000000   30.0000     0.1984
   11.400     0.000   1.187752   0.062003   0.015709   0.077711  -0.000000  -0.000000  -0.550908  -0.000000  -0.000000   30.0000     0.1977
   11.600     0.000   1.204967   0.063684   0.015898   0.079583  -0.000000  -0.000000  -0.556116  -0.000000  -0.000000   30.0000     0.1970
   11.800     0.000   1.222149   0.065385   0.016095   0.081480  -0.000000  -0.000000  -0.561302  -0.000000  -0.000000   30.0000     0.1964
   12.000     0.000   1.239300   0.067105   0.016291   0.083397  -0.000000  -0.000000  -0.566471   0.000000  -0.000000   30.0000     0.1957
   12.200     0.000   1.256417   0.068844   0.016485   0.085329  -0.000000  -0.000000  -0.571618  -0.000000  -0.000000   30.0000     0.1951
   12.400     0.000   1.273502   0.070602   0.016700   0.087301  -0.000000   0.000000  -0.576748   0.000000  -0.000000   30.0000     0.1945
   12.600     0.000   1.290552   0.072378   0.016913   0.089290  -0.000000   0.000000  -0.581856  -0.000000  -0.000000   30.0000     0.1939
   12.800     0.000   1.307569   0.074172   0.017142   0.091313  -0.000000  -0.000000  -0.586947  -0.000000  -0.000000   30.0000     0.1933
   13.000     0.000   1.324551   0.075984   0.017375   0.093359  -0.000000  -0.000000  -0.592016  -0.000000  -0.000000   30.0000     0.1928
   13.200     0.000   1.341498   0.077814   0.017622   0.095436  -0.000000  -0.000000  -0.597067   0.000000  -0.000000   30.0000     0.1923
   13.400     0.000   1.358411   0.079661   0.017887   0.097548  -0.000000  -0.000000  -0.602104   0.000000  -0.000000   30.0000     0.1917
   13.600     0.000   1.375287   0.081526   0.018215   0.099741  -0.000000  -0.000000  -0.607154   0.000000  -0.000000   30.0000     0.1912
   13.800     0.000   1.392127   0.083408   0.018544   0.101952  -0.000000  -0.000000  -0.612176   0.000000  -0.000000   30.0000     0.1908
   14.000     0.000   1.408931   0.085307   0.018883   0.104190  -0.000000  -0.000000  -0.617173  -0.000000  -0.000000   30.0000     0.1903
   14.200     0.000   1.425698   0.087222   0.019243   0.106466  -0.000000  -0.000000  -0.622147   0.000000  -0.000000   30.0000     0.1898
   14.400     0.000   1.442428   0.089154   0.019643   0.108798  -0.000000  -0.000000  -0.627106   0.000000  -0.000000   30.0000     0.1894
   14.600     0.000   1.459120   0.091103   0.020090   0.111193  -0.000000  -0.000000  -0.632057   0.000000  -0.000000   30.0000     0.1889


